1
    SWAT Sep 7    VER 2018/Rev 670                                                                       0/ 0/   0      0: 0: 0

    General Input/Output section (file.cio):                                        
    5/13/2020 12:00:00 AM ARCGIS-SWAT interface AV                                  
                                                                                    
         Number of years in run:    7
         Area of watershed:    10212.716 km2
1
    SWAT Sep 7    VER 2018/Rev 670                                                  

    General Input/Output section (file.cio):                                        
    5/13/2020 12:00:00 AM ARCGIS-SWAT interface AV                                  
                                                                                    
Annual Summary for Watershed in year    1 of simulation

UNIT                                    PERCO    TILE                           WATER     SED     NO3     NO3     NO3     NO3        N       P       P
TIME     PREC    SURQ    LATQ     GWQ    LATE       Q     SW       ET     PET   YIELD   YIELD    SURQ    LATQ    PERC    CROP  ORGANIC SOLUBLE ORGANIC TILENO3
         (mm)    (mm)    (mm)    (mm)    (mm)    (mm)    (mm)    (mm)    (mm)    (mm)   (t/ha)  ------------------(kg nutrient/ha)-------------------- (kg/ha)
1
    SWAT Sep 7    VER 2018/Rev 670                                                  

    General Input/Output section (file.cio):                                        
    5/13/2020 12:00:00 AM ARCGIS-SWAT interface AV                                  
                                                                                    
Annual Summary for Watershed in year    2 of simulation

UNIT                                    PERCO    TILE                           WATER     SED     NO3     NO3     NO3     NO3        N       P       P
TIME     PREC    SURQ    LATQ     GWQ    LATE       Q     SW       ET     PET   YIELD   YIELD    SURQ    LATQ    PERC    CROP  ORGANIC SOLUBLE ORGANIC TILENO3
         (mm)    (mm)    (mm)    (mm)    (mm)    (mm)    (mm)    (mm)    (mm)    (mm)   (t/ha)  ------------------(kg nutrient/ha)-------------------- (kg/ha)
1
    SWAT Sep 7    VER 2018/Rev 670                                                  

    General Input/Output section (file.cio):                                        
    5/13/2020 12:00:00 AM ARCGIS-SWAT interface AV                                  
                                                                                    
Annual Summary for Watershed in year    3 of simulation

UNIT                                    PERCO    TILE                           WATER     SED     NO3     NO3     NO3     NO3        N       P       P
TIME     PREC    SURQ    LATQ     GWQ    LATE       Q     SW       ET     PET   YIELD   YIELD    SURQ    LATQ    PERC    CROP  ORGANIC SOLUBLE ORGANIC TILENO3
         (mm)    (mm)    (mm)    (mm)    (mm)    (mm)    (mm)    (mm)    (mm)    (mm)   (t/ha)  ------------------(kg nutrient/ha)-------------------- (kg/ha)
1
    SWAT Sep 7    VER 2018/Rev 670                                                  

    General Input/Output section (file.cio):                                        
    5/13/2020 12:00:00 AM ARCGIS-SWAT interface AV                                  
                                                                                    
Annual Summary for Watershed in year    4 of simulation

UNIT                                    PERCO    TILE                           WATER     SED     NO3     NO3     NO3     NO3        N       P       P
TIME     PREC    SURQ    LATQ     GWQ    LATE       Q     SW       ET     PET   YIELD   YIELD    SURQ    LATQ    PERC    CROP  ORGANIC SOLUBLE ORGANIC TILENO3
         (mm)    (mm)    (mm)    (mm)    (mm)    (mm)    (mm)    (mm)    (mm)    (mm)   (t/ha)  ------------------(kg nutrient/ha)-------------------- (kg/ha)
1
    SWAT Sep 7    VER 2018/Rev 670                                                  

    General Input/Output section (file.cio):                                        
    5/13/2020 12:00:00 AM ARCGIS-SWAT interface AV                                  
                                                                                    
Annual Summary for Watershed in year    5 of simulation

UNIT                                    PERCO    TILE                           WATER     SED     NO3     NO3     NO3     NO3        N       P       P
TIME     PREC    SURQ    LATQ     GWQ    LATE       Q     SW       ET     PET   YIELD   YIELD    SURQ    LATQ    PERC    CROP  ORGANIC SOLUBLE ORGANIC TILENO3
         (mm)    (mm)    (mm)    (mm)    (mm)    (mm)    (mm)    (mm)    (mm)    (mm)   (t/ha)  ------------------(kg nutrient/ha)-------------------- (kg/ha)
1
    SWAT Sep 7    VER 2018/Rev 670                                                  

    General Input/Output section (file.cio):                                        
    5/13/2020 12:00:00 AM ARCGIS-SWAT interface AV                                  
                                                                                    
Annual Summary for Watershed in year    6 of simulation

UNIT                                    PERCO    TILE                           WATER     SED     NO3     NO3     NO3     NO3        N       P       P
TIME     PREC    SURQ    LATQ     GWQ    LATE       Q     SW       ET     PET   YIELD   YIELD    SURQ    LATQ    PERC    CROP  ORGANIC SOLUBLE ORGANIC TILENO3
         (mm)    (mm)    (mm)    (mm)    (mm)    (mm)    (mm)    (mm)    (mm)    (mm)   (t/ha)  ------------------(kg nutrient/ha)-------------------- (kg/ha)
    1    0.05    0.00    0.00    0.00    0.00    0.00   45.86    0.05    0.20    0.00    0.00    0.00    0.00    0.00    0.00     0.00    0.00    0.00    0.00
    2    0.00    0.00    0.00    0.00    0.00    0.00   45.86    0.06    0.08    0.00    0.00    0.00    0.00    0.00    0.00     0.00    0.00    0.00    0.00
    3    0.27    0.00    0.00    0.00    0.00    0.00   45.82    0.07    0.21    0.00    0.00    0.00    0.00    0.00    0.00     0.00    0.00    0.00    0.00
    4    0.36    0.00    0.00    0.00    0.00    0.00   45.82    0.03    0.04    0.00    0.00    0.00    0.00    0.00    0.00     0.00    0.00    0.00    0.00
    5    0.00    0.00    0.00    0.00    0.00    0.00   45.82    0.04    0.06    0.00    0.00    0.00    0.00    0.00    0.00     0.00    0.00    0.00    0.00
    6    0.00    0.00    0.00    0.00    0.00    0.00   45.79    0.05    0.16    0.00    0.00    0.00    0.00    0.00    0.00     0.00    0.00    0.00    0.00
    7    0.00    0.00    0.00    0.00    0.00    0.00   45.77    0.05    0.14    0.00    0.00    0.00    0.00    0.00    0.00     0.00    0.00    0.00    0.00
    8    0.58    0.00    0.00    0.00    0.00    0.00   45.77    0.01    0.01    0.00    0.00    0.00    0.00    0.00    0.00     0.00    0.00    0.00    0.00
    9    0.03    0.00    0.00    0.00    0.00    0.00   45.72    0.08    0.29    0.00    0.00    0.00    0.00    0.00    0.00     0.00    0.00    0.00    0.00
   10    0.18    0.00    0.00    0.00    0.00    0.00   45.71    0.03    0.09    0.00    0.00    0.00    0.00    0.00    0.00     0.00    0.00    0.00    0.00
   11    0.89    0.00    0.00    0.00    0.00    0.00   45.71    0.01    0.01    0.00    0.00    0.00    0.00    0.00    0.00     0.00    0.00    0.00    0.00
   12    0.35    0.00    0.00    0.00    0.00    0.00   45.69    0.03    0.08    0.00    0.00    0.00    0.00    0.00    0.00     0.00    0.00    0.00    0.00
   13    0.03    0.00    0.00    0.00    0.00    0.00   45.68    0.05    0.15    0.00    0.00    0.00    0.00    0.00    0.00     0.00    0.00    0.00    0.00
   14    0.04    0.00    0.00    0.00    0.00    0.00   45.67    0.03    0.09    0.00    0.00    0.00    0.00    0.00    0.00     0.00    0.00    0.00    0.00
   15    0.00    0.00    0.00    0.00    0.00    0.00   45.60    0.10    0.34    0.00    0.00    0.00    0.00    0.00    0.00     0.00    0.00    0.00    0.00
   16    0.00    0.00    0.00    0.00    0.00    0.00   45.54    0.10    0.35    0.00    0.00    0.00    0.00    0.00    0.00     0.00    0.00    0.00    0.00
   17    0.05    0.00    0.00    0.00    0.00    0.00   45.53    0.04    0.12    0.00    0.00    0.00    0.00    0.00    0.00     0.00    0.00    0.00    0.00
   18    0.08    0.00    0.00    0.00    0.00    0.00   45.48    0.06    0.19    0.00    0.00    0.00    0.00    0.00    0.00     0.00    0.00    0.00    0.00
   19    0.15    0.00    0.00    0.00    0.00    0.00   45.46    0.04    0.18    0.00    0.00    0.00    0.00    0.00    0.00     0.00    0.00    0.00    0.00
   20    0.00    0.00    0.00    0.00    0.00    0.00   45.46    0.02    0.03    0.00    0.00    0.00    0.00    0.00    0.00     0.00    0.00    0.00    0.00
   21    0.36    0.00    0.00    0.00    0.00    0.00   45.46    0.02    0.03    0.00    0.00    0.00    0.00    0.00    0.00     0.00    0.00    0.00    0.00
   22    0.12    0.00    0.00    0.00    0.00    0.00   45.45    0.04    0.11    0.00    0.00    0.00    0.00    0.00    0.00     0.00    0.00    0.00    0.00
   23    0.56    0.00    0.00    0.00    0.00    0.00   45.45    0.02    0.03    0.00    0.00    0.00    0.00    0.00    0.00     0.00    0.00    0.00    0.00
   24    0.14    0.00    0.00    0.00    0.00    0.00   45.38    0.09    0.48    0.00    0.00    0.00    0.00    0.00    0.00     0.00    0.00    0.00    0.00
   25    0.00    0.00    0.00    0.00    0.00    0.00   45.29    0.14    0.55    0.00    0.00    0.00    0.00    0.00    0.00     0.00    0.00    0.00    0.00
   26    0.14    0.00    0.00    0.00    0.00    0.00   45.25    0.08    0.22    0.00    0.00    0.00    0.00    0.00    0.00     0.00    0.00    0.00    0.00
   27    0.00    0.00    0.00    0.00    0.00    0.00   45.22    0.07    0.27    0.00    0.00    0.00    0.00    0.00    0.00     0.00    0.00    0.00    0.00
   28    0.00    0.00    0.00    0.00    0.00    0.00   45.18    0.09    0.37    0.00    0.00    0.00    0.00    0.00    0.00     0.00    0.00    0.00    0.00
   29    0.49    0.00    0.00    0.00    0.00    0.00   45.18    0.03    0.07    0.00    0.00    0.00    0.00    0.00    0.00     0.00    0.00    0.00    0.00
   30    0.57    0.00    0.00    0.00    0.00    0.00   45.18    0.02    0.02    0.00    0.00    0.00    0.00    0.00    0.00     0.00    0.00    0.00    0.00
   31    0.99    0.00    0.00    0.00    0.00    0.00   45.16    0.03    0.10    0.00    0.00    0.00    0.00    0.00    0.00     0.00    0.00    0.00    0.00
    1    6.41    0.00    0.00    0.04    0.00    0.00   45.16    1.58    5.07    0.11    0.00    0.00    0.00    0.00    0.00     0.00    0.00    0.00    0.00
   32    0.18    0.00    0.00    0.00    0.00    0.00   45.16    0.03    0.07    0.00    0.00    0.00    0.00    0.00    0.00     0.00    0.00    0.00    0.00
   33    0.06    0.00    0.00    0.00    0.00    0.00   45.16    0.03    0.05    0.00    0.00    0.00    0.00    0.00    0.00     0.00    0.00    0.00    0.00
   34    0.00    0.00    0.00    0.00    0.00    0.00   45.14    0.07    0.28    0.00    0.00    0.00    0.00    0.00    0.00     0.00    0.00    0.00    0.00
   35    0.00    0.00    0.00    0.00    0.00    0.00   45.09    0.10    0.44    0.00    0.00    0.00    0.00    0.00    0.00     0.00    0.00    0.00    0.00
   36    0.00    0.00    0.00    0.00    0.00    0.00   45.09    0.08    0.16    0.00    0.00    0.00    0.00    0.00    0.00     0.00    0.00    0.00    0.00
   37    0.26    0.00    0.00    0.00    0.00    0.00   45.09    0.02    0.03    0.00    0.00    0.00    0.00    0.00    0.00     0.00    0.00    0.00    0.00
   38    0.56    0.00    0.00    0.00    0.00    0.00   45.09    0.02    0.03    0.00    0.00    0.00    0.00    0.00    0.00     0.00    0.00    0.00    0.00
   39    0.30    0.00    0.00    0.00    0.00    0.00   45.09    0.02    0.04    0.00    0.00    0.00    0.00    0.00    0.00     0.00    0.00    0.00    0.00
   40    0.23    0.00    0.00    0.00    0.00    0.00   45.08    0.03    0.06    0.00    0.00    0.00    0.00    0.00    0.00     0.00    0.00    0.00    0.00
   41    0.19    0.00    0.00    0.00    0.00    0.00   45.08    0.04    0.15    0.00    0.00    0.00    0.00    0.00    0.00     0.00    0.00    0.00    0.00
   42    1.52    0.00    0.00    0.00    0.00    0.00   45.08    0.02    0.03    0.00    0.00    0.00    0.00    0.00    0.00     0.00    0.00    0.00    0.00
   43    0.11    0.00    0.00    0.00    0.00    0.00   45.06    0.04    0.16    0.00    0.00    0.00    0.00    0.00    0.00     0.00    0.00    0.00    0.00
   44    0.03    0.00    0.00    0.00    0.00    0.00   45.03    0.08    0.33    0.00    0.00    0.00    0.00    0.00    0.00     0.00    0.00    0.00    0.00
   45    0.73    0.00    0.00    0.00    0.00    0.00   45.03    0.03    0.04    0.00    0.00    0.00    0.00    0.00    0.00     0.00    0.00    0.00    0.00
   46    1.10    0.00    0.00    0.00    0.00    0.00   45.03    0.04    0.05    0.00    0.00    0.00    0.00    0.00    0.00     0.00    0.00    0.00    0.00
   47    0.91    0.00    0.00    0.00    0.00    0.00   45.03    0.04    0.06    0.00    0.00    0.00    0.00    0.00    0.00     0.00    0.00    0.00    0.00
   48    0.13    0.00    0.00    0.00    0.00    0.00   44.92    0.15    0.66    0.00    0.00    0.00    0.00    0.00    0.00     0.00    0.00    0.00    0.00
   49    0.00    0.00    0.00    0.00    0.00    0.00   44.83    0.14    0.67    0.00    0.00    0.00    0.00    0.00    0.00     0.00    0.00    0.00    0.00
   50    0.04    0.00    0.00    0.00    0.00    0.00   44.81    0.07    0.36    0.00    0.00    0.00    0.00    0.00    0.00     0.00    0.00    0.00    0.00
   51    1.09    0.00    0.00    0.00    0.00    0.00   44.81    0.02    0.03    0.00    0.00    0.00    0.00    0.00    0.00     0.00    0.00    0.00    0.00
   52    1.22    0.00    0.00    0.00    0.00    0.00   44.80    0.03    0.11    0.00    0.00    0.00    0.00    0.00    0.00     0.00    0.00    0.00    0.00
   53    0.00    0.00    0.00    0.00    0.00    0.00   44.71    0.14    0.84    0.00    0.00    0.00    0.00    0.00    0.00     0.00    0.00    0.00    0.00
   54    1.36    0.00    0.00    0.00    0.00    0.00   44.71    0.01    0.02    0.00    0.00    0.00    0.00    0.00    0.00     0.00    0.00    0.00    0.00
   55    1.40    0.00    0.00    0.00    0.00    0.00   44.71    0.02    0.03    0.00    0.00    0.00    0.00    0.00    0.00     0.00    0.00    0.00    0.00
   56    0.39    0.00    0.00    0.00    0.00    0.00   44.71    0.03    0.05    0.00    0.00    0.00    0.00    0.00    0.00     0.00    0.00    0.00    0.00
   57    0.00    0.00    0.00    0.00    0.00    0.00   44.69    0.07    0.41    0.00    0.00    0.00    0.00    0.00    0.00     0.00    0.00    0.00    0.00
   58    0.00    0.00    0.00    0.00    0.00    0.00   44.67    0.08    0.38    0.00    0.00    0.00    0.00    0.00    0.00     0.00    0.00    0.00    0.00
   59    0.00    0.00    0.00    0.00    0.00    0.00   44.67    0.06    0.09    0.00    0.00    0.00    0.00    0.00    0.00     0.00    0.00    0.00    0.00
    2   11.82    0.00    0.00    0.01    0.00    0.00   44.67    1.52    5.62    0.06    0.00    0.00    0.00    0.00    0.00     0.00    0.00    0.00    0.00
   60    0.91    0.00    0.00    0.00    0.00    0.00   44.67    0.06    0.08    0.00    0.00    0.00    0.00    0.00    0.00     0.00    0.00    0.00    0.00
   61    0.40    0.00    0.00    0.00    0.00    0.00   44.67    0.07    0.19    0.00    0.00    0.00    0.00    0.00    0.00     0.00    0.00    0.00    0.00
   62    0.05    0.00    0.00    0.00    0.00    0.00   44.67    0.06    0.09    0.00    0.00    0.00    0.00    0.00    0.00     0.00    0.00    0.00    0.00
   63    0.00    0.00    0.00    0.00    0.00    0.00   44.60    0.14    0.95    0.00    0.00    0.00    0.00    0.00    0.00     0.00    0.00    0.00    0.00
   64    0.00    0.00    0.00    0.00    0.00    0.00   44.58    0.09    0.53    0.00    0.00    0.00    0.00    0.00    0.00     0.00    0.00    0.00    0.00
   65    0.81    0.00    0.00    0.00    0.00    0.00   44.58    0.05    0.08    0.00    0.00    0.00    0.00    0.00    0.00     0.00    0.00    0.00    0.00
   66    0.96    0.00    0.00    0.00    0.00    0.00   44.58    0.04    0.06    0.00    0.00    0.00    0.00    0.00    0.00     0.00    0.00    0.00    0.00
   67    0.13    0.00    0.00    0.00    0.00    0.00   44.57    0.06    0.31    0.00    0.00    0.00    0.00    0.00    0.00     0.00    0.00    0.00    0.00
   68    0.49    0.00    0.00    0.00    0.00    0.00   44.57    0.03    0.10    0.00    0.00    0.00    0.00    0.00    0.00     0.00    0.00    0.00    0.00
   69    0.00    0.00    0.00    0.00    0.00    0.00   44.57    0.09    0.24    0.00    0.00    0.00    0.00    0.00    0.00     0.00    0.00    0.00    0.00
   70    0.00    0.00    0.00    0.00    0.00    0.00   44.56    0.07    0.28    0.00    0.00    0.00    0.00    0.00    0.00     0.00    0.00    0.00    0.00
   71    0.00    0.00    0.00    0.00    0.00    0.00   44.52    0.12    0.80    0.00    0.00    0.00    0.00    0.00    0.00     0.00    0.00    0.00    0.00
   72    1.94    0.00    0.00    0.00    0.00    0.00   44.52    0.04    0.08    0.00    0.00    0.00    0.00    0.00    0.00     0.00    0.00    0.00    0.00
   73    0.04    0.00    0.00    0.00    0.00    0.00   44.50    0.09    0.45    0.00    0.00    0.00    0.00    0.00    0.00     0.00    0.00    0.00    0.00
   74    0.08    0.00    0.00    0.00    0.00    0.00   44.48    0.10    0.47    0.00    0.00    0.00    0.00    0.00    0.00     0.00    0.00    0.00    0.00
   75    0.00    0.00    0.00    0.00    0.00    0.00   44.46    0.12    0.58    0.00    0.00    0.00    0.00    0.00    0.00     0.00    0.00    0.00    0.00
   76    0.00    0.00    0.00    0.00    0.00    0.00   44.43    0.12    0.77    0.00    0.00    0.00    0.00    0.00    0.00     0.00    0.00    0.00    0.00
   77    0.00    0.00    0.00    0.00    0.00    0.00   44.41    0.10    0.56    0.00    0.00    0.00    0.00    0.00    0.00     0.00    0.00    0.00    0.00
   78    0.35    0.00    0.00    0.00    0.00    0.00   44.40    0.07    0.66    0.00    0.00    0.00    0.00    0.00    0.00     0.00    0.00    0.00    0.00
   79    0.00    0.00    0.00    0.00    0.00    0.00   44.39    0.09    0.38    0.00    0.00    0.00    0.00    0.00    0.00     0.00    0.00    0.00    0.00
   80    0.26    0.00    0.00    0.00    0.00    0.00   44.39    0.09    0.43    0.00    0.00    0.00    0.00    0.00    0.00     0.00    0.00    0.00    0.00
   81    0.12    0.00    0.00    0.00    0.00    0.00   44.38    0.12    0.85    0.00    0.00    0.00    0.00    0.00    0.00     0.00    0.00    0.00    0.00
   82    3.02    0.00    0.00    0.00    0.00    0.00   44.37    0.06    0.39    0.00    0.00    0.00    0.00    0.00    0.00     0.00    0.00    0.00    0.00
   83    0.00    0.00    0.00    0.00    0.00    0.00   44.34    0.15    1.01    0.00    0.00    0.00    0.00    0.00    0.00     0.00    0.00    0.00    0.00
   84    0.04    0.00    0.00    0.00    0.00    0.00   44.34    0.09    0.36    0.00    0.00    0.00    0.00    0.00    0.00     0.00    0.00    0.00    0.00
   85    2.33    0.00    0.00    0.00    0.00    0.00   44.33    0.06    0.36    0.00    0.00    0.00    0.00    0.00    0.00     0.00    0.00    0.00    0.00
   86    0.62    0.00    0.00    0.00    0.00    0.00   44.33    0.05    0.08    0.00    0.00    0.00    0.00    0.00    0.00     0.00    0.00    0.00    0.00
   87    0.92    0.00    0.00    0.00    0.00    0.00   44.33    0.02    0.12    0.00    0.00    0.00    0.00    0.00    0.00     0.00    0.00    0.00    0.00
   88    1.68    0.00    0.00    0.00    0.00    0.00   44.33    0.04    0.11    0.00    0.00    0.00    0.00    0.00    0.00     0.00    0.00    0.00    0.00
   89    0.30    0.00    0.00    0.00    0.00    0.00   44.32    0.11    0.41    0.00    0.00    0.00    0.00    0.00    0.00     0.00    0.00    0.00    0.00
   90    4.26    0.00    0.00    0.00    0.00    0.00   44.32    0.06    0.10    0.00    0.00    0.00    0.00    0.00    0.00     0.00    0.00    0.00    0.00
    3   19.71    0.00    0.00    0.00    0.00    0.00   44.32    2.48   11.89    0.04    0.00    0.00    0.00    0.00    0.00     0.00    0.00    0.00    0.00
   91    0.00    0.84    0.00    0.00    0.00    0.00   45.08    0.58    1.68    0.71    0.95    0.00    0.00    0.00    0.00     0.36    0.00    0.04    0.00
   92    0.00    0.20    0.00    0.00    0.00    0.00   45.45    0.42    1.37    0.28    0.00    0.00    0.00    0.00    0.00     0.10    0.00    0.01    0.00
   93    0.12    0.00    0.00    0.00    0.00    0.00   45.43    0.23    0.86    0.05    0.00    0.00    0.00    0.00    0.00     0.01    0.00    0.00    0.00
   94    0.00    0.00    0.00    0.00    0.00    0.00   45.40    0.22    0.68    0.01    0.00    0.00    0.00    0.00    0.00     0.00    0.00    0.00    0.00
   95    0.00    0.15    0.00    0.00    0.00    0.00   45.67    0.20    0.72    0.13    0.23    0.00    0.00    0.00    0.00     0.04    0.00    0.01    0.00
   96    0.00    0.07    0.00    0.00    0.00    0.00   45.79    0.30    1.35    0.08    0.00    0.00    0.00    0.00    0.00     0.02    0.00    0.00    0.00
   97    4.34    0.00    0.00    0.00    0.00    0.00   45.78    0.06    0.15    0.01    0.00    0.00    0.00    0.00    0.00     0.00    0.00    0.00    0.00
   98    2.08    0.00    0.00    0.00    0.00    0.00   45.71    0.15    0.48    0.00    0.00    0.00    0.00    0.00    0.00     0.00    0.00    0.00    0.00
   99    0.00    0.00    0.00    0.00    0.00    0.00   45.64    0.17    0.66    0.00    0.00    0.00    0.00    0.00    0.00     0.00    0.00    0.00    0.00
  100    0.00    0.00    0.00    0.00    0.00    0.00   45.51    0.25    1.09    0.00    0.00    0.00    0.00    0.00    0.00     0.00    0.00    0.00    0.00
  101    0.00    0.00    0.00    0.00    0.00    0.00   45.41    0.22    0.88    0.00    0.00    0.00    0.00    0.00    0.00     0.00    0.00    0.00    0.00
  102    0.44    0.00    0.00    0.00    0.00    0.00   45.36    0.14    0.55    0.00    0.00    0.00    0.00    0.00    0.00     0.00    0.00    0.00    0.00
  103    1.67    0.00    0.00    0.00    0.00    0.00   45.36    0.05    0.09    0.00    0.00    0.00    0.00    0.00    0.00     0.00    0.00    0.00    0.00
  104    2.37    0.00    0.00    0.00    0.00    0.00   45.36    0.05    0.07    0.00    0.00    0.00    0.00    0.00    0.00     0.00    0.00    0.00    0.00
  105    3.22    0.00    0.00    0.00    0.00    0.00   45.35    0.06    0.15    0.00    0.00    0.00    0.00    0.00    0.00     0.00    0.00    0.00    0.00
  106    2.02    0.00    0.00    0.00    0.00    0.00   45.31    0.15    0.71    0.00    0.00    0.00    0.00    0.00    0.00     0.00    0.00    0.00    0.00
  107    3.39    0.00    0.00    0.00    0.00    0.00   45.26    0.15    0.62    0.00    0.00    0.00    0.00    0.00    0.00     0.00    0.00    0.00    0.00
  108    2.59    0.00    0.00    0.00    0.00    0.00   45.24    0.08    0.21    0.00    0.00    0.00    0.00    0.00    0.00     0.00    0.00    0.00    0.00
  109    4.35    0.00    0.00    0.00    0.00    0.00   45.20    0.10    0.43    0.00    0.00    0.00    0.00    0.00    0.00     0.00    0.00    0.00    0.00
  110    0.00    0.01    0.00    0.00    0.00    0.00   45.17    0.31    1.57    0.01    0.01    0.00    0.00    0.00    0.00     0.00    0.00    0.00    0.00
  111    0.00    0.00    0.00    0.00    0.00    0.00   45.08    0.22    1.12    0.00    0.00    0.00    0.00    0.00    0.00     0.00    0.00    0.00    0.00
  112    0.00    0.00    0.00    0.00    0.00    0.00   45.00    0.20    0.96    0.00    0.00    0.00    0.00    0.00    0.00     0.00    0.00    0.00    0.00
  113    0.00    0.00    0.00    0.00    0.00    0.00   44.96    0.15    0.57    0.00    0.00    0.00    0.00    0.00    0.00     0.00    0.00    0.00    0.00
  114    0.30    0.00    0.00    0.00    0.00    0.00   44.92    0.15    0.79    0.00    0.00    0.00    0.00    0.00    0.00     0.00    0.00    0.00    0.00
  115   11.44    0.00    0.00    0.00    0.00    0.00   44.92    0.07    0.09    0.00    0.00    0.00    0.00    0.00    0.00     0.00    0.00    0.00    0.00
  116    2.03    0.00    0.00    0.00    0.00    0.00   44.85    0.14    0.45    0.00    0.00    0.00    0.00    0.00    0.00     0.00    0.00    0.00    0.00
  117    0.00    0.00    0.00    0.00    0.00    0.00   44.73    0.31    1.76    0.00    0.00    0.00    0.00    0.00    0.00     0.00    0.00    0.00    0.00
  118    1.84    0.00    0.00    0.00    0.00    0.00   44.73    0.18    0.58    0.00    0.00    0.00    0.00    0.00    0.00     0.00    0.00    0.00    0.00
  119    4.65    0.00    0.00    0.00    0.00    0.00   44.72    0.09    0.23    0.00    0.00    0.00    0.00    0.00    0.00     0.00    0.00    0.00    0.00
  120    7.87    0.00    0.00    0.00    0.00    0.00   44.72    0.06    0.13    0.00    0.00    0.00    0.00    0.00    0.00     0.00    0.00    0.00    0.00
    4   54.74    1.27    0.00    0.00    0.00    0.00   44.72    5.48   21.04    1.30    1.19    0.01    0.00    0.00    0.00     0.54    0.00    0.07    0.00
  121    1.73    0.00    0.00    0.00    0.00    0.00   44.61    0.20    0.98    0.00    0.00    0.00    0.00    0.00    0.00     0.00    0.00    0.00    0.00
  122    0.66    0.00    0.00    0.00    0.00    0.00   44.51    0.24    0.89    0.00    0.00    0.00    0.00    0.00    0.00     0.00    0.00    0.00    0.00
  123    0.33    0.00    0.00    0.00    0.00    0.00   44.42    0.24    1.10    0.00    0.00    0.00    0.00    0.00    0.00     0.00    0.00    0.00    0.00
  124    5.14    0.00    0.00    0.00    0.00    0.00   44.42    0.08    0.12    0.00    0.00    0.00    0.00    0.00    0.00     0.00    0.00    0.00    0.00
  125    0.00    0.05    0.00    0.00    0.00    0.00   44.65    0.32    1.57    0.05    0.06    0.00    0.00    0.00    0.00     0.01    0.00    0.00    0.00
  126    0.00    0.89    0.00    0.00    0.00    0.00   45.40    0.81    2.54    0.76    0.76    0.00    0.00    0.00    0.00     0.21    0.00    0.03    0.00
  127    0.00    0.75    0.00    0.00    0.00    0.00   46.03    0.36    1.58    0.74    0.05    0.00    0.00    0.00    0.00     0.18    0.00    0.02    0.00
  128    9.63    0.00    0.00    0.00    0.00    0.00   46.03    0.10    0.17    0.11    0.00    0.00    0.00    0.00    0.00     0.02    0.00    0.00    0.00
  129    9.25    0.34    0.00    0.00    0.00    0.00   46.24    0.19    0.69    0.33    0.76    0.00    0.00    0.00    0.00     0.06    0.00    0.01    0.00
  130    4.03    2.44    0.00    0.00    0.00    0.00   47.11    0.23    0.93    2.08    1.21    0.00    0.00    0.00    0.00     0.55    0.00    0.07    0.00
  131    0.92    0.01    0.00    0.00    0.00    0.00   47.18    0.28    0.87    0.33    0.00    0.00    0.00    0.00    0.00     0.08    0.00    0.01    0.00
  132    1.14    0.00    0.00    0.00    0.00    0.00   47.02    0.29    0.82    0.07    0.00    0.00    0.00    0.00    0.00     0.01    0.00    0.00    0.00
  133    0.80    0.00    0.00    0.00    0.00    0.00   46.90    0.28    0.98    0.02    0.00    0.00    0.00    0.00    0.00     0.00    0.00    0.00    0.00
  134    0.00    0.12    0.00    0.00    0.00    0.00   47.15    0.57    2.33    0.11    0.11    0.00    0.00    0.00    0.00     0.02    0.00    0.00    0.00
  135    3.69    0.10    0.00    0.00    0.00    0.00   47.33    0.16    0.27    0.10    0.00    0.00    0.00    0.00    0.00     0.02    0.00    0.00    0.00
  136   10.08    4.50    0.01    0.00    0.01    0.00   48.22    0.11    0.16    3.76    1.94    0.01    0.00    0.00    0.00     0.86    0.00    0.11    0.00
  137    0.80    3.27    0.04    0.00    0.51    0.00   49.79    1.32    2.52    3.37    1.67    0.01    0.00    0.01    0.00     0.84    0.00    0.11    0.00
  138    0.00    5.48    0.11    0.00    0.83    0.00   52.46    1.40    2.63    5.25    8.07    0.01    0.00    0.02    0.00     2.08    0.00    0.26    0.00
  139    2.16   10.72    0.25    0.00    0.88    0.00   56.50    0.37    0.62   10.11   18.31    0.01    0.00    0.02    0.00     4.26    0.00    0.52    0.00
  140    0.20    4.40    0.27    0.01    0.74    0.00   59.69    0.98    1.82    5.40    0.22    0.01    0.00    0.01    0.00     1.56    0.00    0.19    0.00
  141    2.04    6.68    0.36    0.01    2.34    0.00   61.58    0.55    1.02    6.85   11.19    0.01    0.00    0.04    0.00     1.93    0.00    0.24    0.00
  142    1.12   10.44    0.47    0.02    2.36    0.00   64.10    1.41    2.67   10.42   26.17    0.02    0.00    0.04    0.00     3.62    0.00    0.44    0.00
  143    4.20    3.92    0.48    0.03    1.44    0.00   65.68    0.46    0.81    5.11    2.79    0.01    0.00    0.02    0.00     1.20    0.00    0.14    0.00
  144    2.15    0.62    0.45    0.04    1.00    0.00   66.19    0.88    1.67    1.87    0.02    0.01    0.00    0.02    0.00     0.31    0.00    0.04    0.00
  145    0.00    0.46    0.42    0.05    0.71    0.00   66.79    1.00    2.19    1.17    0.91    0.00    0.00    0.01    0.00     0.12    0.00    0.01    0.00
  146    0.00    0.99    0.39    0.06    0.65    0.00   67.55    1.29    2.96    1.43    0.80    0.00    0.00    0.01    0.00     0.15    0.00    0.02    0.00
  147    0.28    0.10    0.34    0.07    0.38    0.00   67.20    0.93    2.17    0.67    0.12    0.00    0.00    0.01    0.00     0.03    0.00    0.00    0.00
  148    3.29    0.00    0.27    0.08    0.19    0.00   66.69    0.58    1.59    0.40    0.00    0.00    0.00    0.00    0.00     0.01    0.00    0.00    0.00
  149    1.30    0.00    0.21    0.09    0.07    0.00   66.40    0.45    1.28    0.32    0.00    0.00    0.00    0.00    0.00     0.00    0.00    0.00    0.00
  150    0.00    0.00    0.16    0.10    0.03    0.00   66.01    0.52    1.47    0.27    0.00    0.00    0.00    0.00    0.00     0.00    0.00    0.00    0.00
  151    1.89    0.00    0.13    0.11    0.01    0.00   65.67    0.49    1.72    0.24    0.00    0.00    0.00    0.00    0.00     0.00    0.00    0.00    0.00
    5   66.83   56.28    4.36    0.66   12.17    0.00   65.67   17.10   43.12   61.33   75.16    0.12    0.03    0.21    0.00    18.15    0.01    2.24    0.00
  152    0.00    0.72    0.13    0.12    0.34    0.00   65.94    1.02    2.42    0.86    0.86    0.00    0.00    0.01    0.00     0.07    0.00    0.01    0.00
  153    0.00    0.03    0.12    0.12    0.31    0.00   65.56    0.88    2.18    0.36    0.00    0.00    0.00    0.01    0.00     0.01    0.00    0.00    0.00
  154    0.00    1.94    0.14    0.13    0.51    0.00   66.59    1.20    2.65    1.91    1.86    0.00    0.00    0.01    0.00     0.26    0.00    0.03    0.00
  155    0.00    3.63    0.14    0.14    0.39    0.00   68.41    0.87    2.26    3.59    4.78    0.01    0.00    0.01    0.00     0.60    0.00    0.07    0.00
  156    0.00    3.14    0.18    0.15    0.34    0.00   70.68    1.54    3.64    3.48    2.08    0.01    0.00    0.01    0.00     0.58    0.00    0.07    0.00
  157    0.68    1.27    0.18    0.15    0.31    0.00   71.63    0.60    1.68    1.91    0.28    0.00    0.00    0.01    0.00     0.20    0.00    0.02    0.00
  158    0.00    0.64    0.18    0.16    0.28    0.00   72.00    1.14    2.89    1.15    0.59    0.00    0.00    0.01    0.00     0.09    0.00    0.01    0.00
  159   16.27    1.24    0.21    0.17    0.58    0.00   72.79    0.53    1.45    1.55    2.80    0.00    0.00    0.01    0.00     0.13    0.00    0.02    0.00
  160    0.00    2.34    0.20    0.17    0.21    0.00   74.28    1.24    3.23    2.51    2.66    0.00    0.00    0.00    0.00     0.34    0.00    0.04    0.00
  161    1.07    3.79    0.19    0.18    0.14    0.00   76.11    0.89    2.59    3.87    3.78    0.01    0.00    0.00    0.00     0.64    0.00    0.08    0.00
  162    0.33    7.62    0.18    0.18    0.04    0.00   78.91    1.25    3.22    7.41   20.02    0.01    0.00    0.00    0.00     1.50    0.00    0.18    0.00
  163    0.00    7.15    0.17    0.19    0.01    0.00   81.31    1.74    4.08    7.44    3.89    0.01    0.00    0.00    0.01     1.32    0.00    0.16    0.00
  164    6.91    6.19    0.23    0.19    0.81    0.00   83.56    1.09    2.10    6.62    5.93    0.02    0.00    0.02    0.02     0.87    0.00    0.11    0.00
  165    3.96    6.34    0.23    0.19    0.30    0.00   84.10    1.81    3.38    6.73   19.32    0.05    0.00    0.01    0.02     0.78    0.00    0.10    0.00
  166    2.33    0.36    0.24    0.20    3.71    0.00   80.12    1.54    3.42    1.77    1.36    0.00    0.00    0.20    0.10     0.14    0.00    0.02    0.00
  167    0.00    2.17    0.45    0.21    5.38    0.00   74.57    1.42    3.87    2.91    7.92    0.03    0.01    0.21    0.09     0.23    0.00    0.03    0.00
  168    0.00    2.81    0.38    0.23    1.93    0.00   73.45    1.32    4.39    3.39    4.17    0.07    0.01    0.04    0.13     0.30    0.00    0.04    0.00
  169    0.00    2.06    0.32    0.24    0.70    0.00   73.49    1.49    4.64    2.70    4.13    0.15    0.01    0.01    0.17     0.21    0.00    0.03    0.00
  170    8.34    2.79    0.33    0.26    0.91    0.00   74.99    0.76    1.97    3.18    2.24    0.24    0.01    0.03    0.14     0.22    0.00    0.03    0.00
  171    0.60    2.38    0.28    0.28    0.34    0.00   75.17    1.75    4.63    3.03    8.59    0.02    0.01    0.01    0.20     0.18    0.00    0.02    0.00
  172    0.00    3.57    0.35    0.29    0.98    0.00   74.26    1.53    4.14    4.14    9.19    0.06    0.01    0.07    0.35     0.37    0.00    0.05    0.00
  173    0.00    3.56    0.26    0.30    0.26    0.00   74.14    1.66    5.65    4.10    8.56    0.04    0.01    0.02    0.50     0.35    0.00    0.04    0.00
  174    1.26    3.98    0.22    0.31    1.26    0.00   73.29    1.27    5.38    4.45   12.44    0.02    0.01    0.14    0.61     0.32    0.00    0.04    0.00
  175   15.92    3.11    0.30    0.33    0.96    0.00   74.99    0.92    1.79    3.76    2.63    0.25    0.01    0.05    0.48     0.36    0.00    0.05    0.00
  176    4.53    1.88    0.32    0.34    0.55    0.00   76.62    1.24    2.97    2.88    5.67    0.04    0.01    0.02    0.40     0.21    0.00    0.03    0.00
  177    0.00    1.03    0.31    0.35    0.23    0.00   77.50    1.65    4.30    1.83    1.04    0.01    0.01    0.01    0.65     0.09    0.00    0.01    0.00
  178    0.96    0.18    0.26    0.36    0.04    0.00   77.32    1.21    4.29    0.92    0.16    0.00    0.01    0.00    0.61     0.02    0.00    0.00    0.00
  179    0.00    2.25    0.22    0.37    1.57    0.00   75.38    1.97    3.67    2.67   10.08    0.00    0.01    0.26    0.65     0.15    0.00    0.02    0.00
  180    0.00    0.02    0.17    0.38    0.96    0.00   73.70    1.27    4.55    0.76    0.00    0.00    0.01    0.11    0.89     0.01    0.00    0.00    0.00
  181    5.59    0.05    0.16    0.39    0.59    0.00   73.81    0.52    1.27    0.63    0.05    0.00    0.00    0.06    0.56     0.00    0.00    0.00    0.00
    6   68.76   78.25    7.07    7.05   24.95    0.00   73.81   37.33   98.68   92.50  147.07    1.07    0.14    1.36    6.58    10.57    0.01    1.29    0.00
  182    0.00    3.66    0.16    0.40    0.98    0.00   73.62    1.98    4.92    3.87   18.94    0.00    0.00    0.06    0.18     0.23    0.00    0.03    0.00
  183    0.00    3.79    0.14    0.41    1.02    0.00   72.26    1.58    5.16    4.27    6.01    0.00    0.00    0.12    0.99     0.25    0.00    0.03    0.00
  184    0.00    1.67    0.17    0.42    0.45    0.00   71.67    1.29    5.09    2.46    3.96    0.00    0.00    0.04    0.90     0.11    0.00    0.01    0.00
  185    1.16    1.26    0.17    0.43    0.21    0.00   72.25    1.36    4.37    1.94    3.32    0.00    0.00    0.02    0.15     0.08    0.00    0.01    0.00
  186    0.00    1.33    0.13    0.43    0.16    0.00   71.23    1.75    4.94    1.90    4.50    0.00    0.00    0.03    0.07     0.09    0.00    0.01    0.00
  187    0.00    2.00    0.15    0.44    0.59    0.00   69.55    1.66    6.46    2.51    8.24    0.00    0.00    0.09    0.14     0.15    0.00    0.02    0.00
  188    0.00    0.48    0.14    0.44    0.54    0.00   68.26    1.27    5.16    1.22    0.00    0.00    0.00    0.04    0.26     0.04    0.00    0.01    0.00
  189    0.00    0.72    0.23    0.45    1.45    0.00   65.86    1.28    4.78    1.41    4.54    0.00    0.01    0.06    0.22     0.06    0.00    0.01    0.00
  190    2.49    0.11    0.18    0.45    0.03    0.00   66.77    0.87    3.44    0.83    0.46    0.00    0.00    0.00    0.18     0.00    0.00    0.00    0.00
  191    0.92    1.28    0.16    0.46    1.82    0.00   64.81    1.41    4.58    1.80    8.04    0.00    0.00    0.21    0.15     0.09    0.00    0.01    0.00
  192    0.00    1.22    0.14    0.46    1.52    0.00   62.30    1.57    5.87    1.81    1.38    0.00    0.00    0.13    0.22     0.09    0.00    0.01    0.00
  193    0.60    1.53    0.20    0.46    0.85    0.00   61.17    1.38    5.95    2.17    9.50    0.00    0.00    0.08    0.25     0.11    0.00    0.01    0.00
  194    0.00    0.98    0.25    0.47    0.39    0.00   59.89    1.40    7.02    1.77    0.19    0.00    0.00    0.04    0.27     0.08    0.00    0.01    0.00
  195    2.74    0.78    0.20    0.47    0.10    0.00   60.30    1.09    4.36    1.47    4.55    0.00    0.00    0.00    0.29     0.04    0.00    0.01    0.00
  196    0.00    1.10    0.19    0.47    0.08    0.00   59.85    1.65    5.32    1.77    4.11    0.00    0.00    0.00    0.21     0.07    0.00    0.01    0.00
  197    0.00    0.87    0.17    0.48    0.07    0.00   58.97    1.56    6.58    1.55    2.80    0.00    0.00    0.01    0.28     0.06    0.00    0.01    0.00
  198    0.25    0.03    0.15    0.48    0.04    0.00   58.09    1.13    6.34    0.75    0.08    0.00    0.00    0.00    0.31     0.00    0.00    0.00    0.00
  199    0.20    0.02    0.13    0.48    0.00    0.00   57.17    1.28    6.03    0.65    0.00    0.00    0.00    0.00    0.28     0.00    0.00    0.00    0.00
  200    0.00    0.00    0.10    0.48    0.49    0.00   55.85    1.07    6.19    0.60    0.00    0.00    0.00    0.01    0.29     0.00    0.00    0.00    0.00
  201    0.00    0.00    0.09    0.48    0.29    0.00   54.57    1.25    5.85    0.58    0.00    0.00    0.00    0.01    0.22     0.00    0.00    0.00    0.00
  202    0.00    0.00    0.13    0.48    4.12    0.00   49.28    1.14    6.30    0.62    0.00    0.00    0.00    0.18    0.16     0.00    0.00    0.00    0.00
  203    0.00    0.00    0.12    0.48    0.73    0.00   47.80    0.97    6.06    0.61    0.00    0.00    0.00    0.01    0.39     0.00    0.00    0.00    0.00
  204    0.00    0.00    0.10    0.48    0.06    0.00   46.72    1.28    4.97    0.59    0.00    0.00    0.00    0.00    0.24     0.00    0.00    0.00    0.00
  205    7.23    0.08    0.13    0.48    0.01    0.00   48.61    0.26    0.49    0.69    0.42    0.00    0.00    0.00    0.01     0.00    0.00    0.00    0.00
  206    0.00    0.04    0.12    0.48    0.02    0.00   49.02    1.38    3.46    0.65    0.08    0.00    0.00    0.00    0.17     0.00    0.00    0.00    0.00
  207    0.00    0.00    0.09    0.48    0.01    0.00   48.67    0.67    3.05    0.58    0.00    0.00    0.00    0.00    0.01     0.00    0.00    0.00    0.00
  208    0.77    0.08    0.11    0.48    0.00    0.00   49.83    1.07    3.94    0.68    0.45    0.00    0.00    0.00    0.02     0.00    0.00    0.00    0.00
  209    0.00    0.16    0.10    0.47    0.01    0.00   49.59    1.38    6.30    0.74    0.71    0.00    0.00    0.00    0.02     0.00    0.00    0.00    0.00
  210    0.00    0.01    0.08    0.47    0.00    0.00   48.78    1.16    6.05    0.58    0.00    0.00    0.00    0.00    0.35     0.00    0.00    0.00    0.00
  211    1.30    0.10    0.08    0.47    0.00    0.00   49.13    0.86    5.02    0.65    0.53    0.00    0.00    0.00    0.20     0.00    0.00    0.00    0.00
  212    0.00    0.00    0.06    0.47    0.03    0.00   48.48    0.88    6.80    0.55    0.00    0.00    0.00    0.00    0.06     0.00    0.00    0.00    0.00
    7   17.64   23.29    4.36   14.26   16.09    0.00   48.48   38.89  160.83   42.27   82.79    0.01    0.08    1.16    7.48     1.57    0.00    0.20    0.00
  213    0.00    0.00    0.05    0.47    0.02    0.00   47.32    1.40    4.92    0.53    0.00    0.00    0.00    0.00    0.07     0.00    0.00    0.00    0.00
  214    0.00    0.00    0.04    0.46    0.08    0.00   46.42    1.08    6.12    0.52    0.00    0.00    0.00    0.00    0.06     0.00    0.00    0.00    0.00
  215    0.00    0.00    0.05    0.45    0.62    0.00   44.88    1.15    6.04    0.52    0.00    0.00    0.00    0.00    0.15     0.00    0.00    0.00    0.00
  216    0.00    0.00    0.04    0.45    0.38    0.00   43.71    1.04    6.70    0.51    0.00    0.00    0.00    0.02    1.43     0.00    0.00    0.00    0.00
  217    0.00    0.00    0.04    0.45    0.11    0.00   43.03    0.83    6.49    0.50    0.00    0.00    0.00    0.00    0.59     0.00    0.00    0.00    0.00
  218    0.00    0.00    0.03    0.44    0.10    0.00   42.01    1.20    5.39    0.49    0.00    0.00    0.00    0.01    0.34     0.00    0.00    0.00    0.00
  219    0.00    0.00    0.03    0.44    0.10    0.00   41.18    0.99    6.35    0.48    0.00    0.00    0.00    0.01    0.39     0.00    0.00    0.00    0.00
  220    0.00    0.00    0.02    0.43    0.00    0.00   40.61    0.83    6.27    0.47    0.00    0.00    0.00    0.00    0.38     0.00    0.00    0.00    0.00
  221    0.00    0.00    0.02    0.42    0.00    0.00   39.51    1.34    4.42    0.46    0.00    0.00    0.00    0.00    0.18     0.00    0.00    0.00    0.00
  222    0.00    0.00    0.02    0.42    0.00    0.00   38.94    0.80    4.45    0.45    0.00    0.00    0.00    0.00    0.18     0.00    0.00    0.00    0.00
  223    0.00    0.00    0.01    0.41    0.00    0.00   38.32    0.85    4.73    0.44    0.00    0.00    0.00    0.00    0.08     0.00    0.00    0.00    0.00
  224    0.00    0.00    0.01    0.41    0.00    0.00   37.91    0.62    4.92    0.44    0.00    0.00    0.00    0.00    0.03     0.00    0.00    0.00    0.00
  225    0.00    0.00    0.01    0.40    0.00    0.00   37.53    0.60    5.00    0.43    0.00    0.00    0.00    0.00    0.01     0.00    0.00    0.00    0.00
  226    0.00    0.00    0.01    0.40    0.00    0.00   37.24    0.51    5.44    0.42    0.00    0.00    0.00    0.00    0.02     0.00    0.00    0.00    0.00
  227    1.78    0.15    0.04    0.39    0.02    0.00   38.17    0.74    5.42    0.59    1.48    0.00    0.00    0.00    0.02     0.00    0.00    0.00    0.00
  228    0.00    0.00    0.03    0.38    0.00    0.00   37.63    0.78    5.89    0.44    0.00    0.00    0.00    0.00    0.06     0.00    0.00    0.00    0.00
  229    0.00    0.00    0.02    0.38    0.00    0.00   37.21    0.66    4.98    0.42    0.00    0.00    0.00    0.00    0.02     0.00    0.00    0.00    0.00
  230    0.00    0.00    0.02    0.37    0.00    0.00   36.84    0.62    7.15    0.40    0.00    0.00    0.00    0.00    0.02     0.00    0.00    0.00    0.00
  231    0.00    0.00    0.02    0.36    0.00    0.00   36.40    0.68    5.53    0.39    0.00    0.00    0.00    0.00    0.02     0.00    0.00    0.00    0.00
  232    0.00    0.00    0.01    0.36    0.00    0.00   36.00    0.63    5.04    0.39    0.00    0.00    0.00    0.00    0.02     0.00    0.00    0.00    0.00
  233    6.65    0.18    0.06    0.35    0.03    0.00   37.72    0.41    1.96    0.59    1.32    0.00    0.00    0.00    0.00     0.00    0.00    0.00    0.00
  234    1.55    0.04    0.07    0.35    0.03    0.00   38.43    0.65    2.69    0.49    0.04    0.00    0.00    0.00    0.02     0.00    0.00    0.00    0.00
  235    3.12    0.26    0.09    0.34    0.00    0.00   40.02    0.90    3.04    0.69    1.82    0.00    0.00    0.00    0.02     0.01    0.00    0.00    0.00
  236    3.31    1.80    0.11    0.34    0.04    0.00   42.59    1.21    4.40    2.06    8.44    0.00    0.00    0.00    0.01     0.05    0.00    0.01    0.00
  237    6.30    1.95    0.15    0.33    0.04    0.00   45.41    0.88    2.91    2.33    4.16    0.00    0.00    0.00    0.01     0.03    0.00    0.00    0.00
  238   14.16    3.65    0.36    0.33    0.12    0.00   53.28    1.07    1.89    4.13   15.05    0.00    0.00    0.00    0.01     0.20    0.00    0.02    0.00
  239    0.00    0.25    0.27    0.32    0.27    0.00   52.18    1.51    4.68    1.25    0.78    0.00    0.00    0.02    0.01     0.03    0.00    0.00    0.00
  240    0.00    0.01    0.21    0.31    0.23    0.00   51.15    1.12    5.95    0.66    0.00    0.00    0.00    0.02    0.08     0.01    0.00    0.00    0.00
  241    0.00    0.00    0.17    0.30    0.17    0.00   50.23    1.02    5.39    0.51    0.00    0.00    0.00    0.02    0.08     0.00    0.00    0.00    0.00
  242    0.00    0.00    0.13    0.29    0.36    0.00   48.85    1.27    5.49    0.45    0.00    0.00    0.00    0.01    0.12     0.00    0.00    0.00    0.00
  243    0.00    0.00    0.11    0.29    0.21    0.00   47.75    1.17    6.79    0.41    0.00    0.00    0.00    0.01    0.09     0.00    0.00    0.00    0.00
    8   36.85    8.28    2.27   11.84    2.91    0.00   47.75   28.56  156.41   22.85   33.08    0.01    0.01    0.12    4.53     0.33    0.00    0.04    0.00
  244    3.85    0.04    0.11    0.28    0.06    0.00   48.09    0.42    2.16    0.45    0.00    0.00    0.00    0.00    0.01     0.00    0.00    0.00    0.00
  245    0.76    0.22    0.12    0.28    0.06    0.00   49.33    0.77    3.01    0.61    1.54    0.00    0.00    0.00    0.02     0.00    0.00    0.00    0.00
  246    0.00    0.07    0.10    0.28    0.03    0.00   49.59    0.74    3.61    0.48    0.44    0.00    0.00    0.00    0.01     0.00    0.00    0.00    0.00
  247    0.61    0.00    0.08    0.27    0.01    0.00   49.12    0.59    3.38    0.38    0.00    0.00    0.00    0.00    0.01     0.00    0.00    0.00    0.00
  248    0.02    0.10    0.07    0.27    0.00    0.00   48.88    0.78    3.42    0.45    0.43    0.00    0.00    0.00    0.01     0.01    0.00    0.00    0.00
  249    0.00    0.00    0.06    0.26    0.00    0.00   48.48    0.62    5.08    0.34    0.00    0.00    0.00    0.00    0.01     0.00    0.00    0.00    0.00
  250    0.00    0.00    0.05    0.25    0.00    0.00   47.96    0.68    3.33    0.31    0.00    0.00    0.00    0.00    0.00     0.00    0.00    0.00    0.00
  251    0.00    0.00    0.04    0.24    0.00    0.00   47.67    0.46    3.70    0.30    0.00    0.00    0.00    0.00    0.01     0.00    0.00    0.00    0.00
  252    0.00    0.00    0.03    0.24    0.00    0.00   47.11    0.75    4.66    0.28    0.00    0.00    0.00    0.00    0.01     0.00    0.00    0.00    0.00
  253    0.00    0.00    0.03    0.23    0.00    0.00   46.65    0.63    3.98    0.28    0.00    0.00    0.00    0.00    0.01     0.00    0.00    0.00    0.00
  254    0.00    0.00    0.02    0.23    0.00    0.00   46.29    0.52    3.70    0.27    0.00    0.00    0.00    0.00    0.01     0.00    0.00    0.00    0.00
  255    2.60    0.28    0.09    0.22    0.15    0.00   47.75    0.65    3.83    0.56    0.10    0.00    0.00    0.00    0.01     0.01    0.00    0.00    0.00
  256    0.09    0.00    0.06    0.20    0.05    0.00   47.44    0.41    3.12    0.31    0.00    0.00    0.00    0.00    0.00     0.00    0.00    0.00    0.00
  257    0.00    0.00    0.05    0.19    0.02    0.00   47.07    0.58    3.37    0.27    0.01    0.00    0.00    0.00    0.00     0.00    0.00    0.00    0.00
  258    0.00    0.00    0.04    0.19    0.00    0.00   46.54    0.70    3.22    0.24    0.00    0.00    0.00    0.00    0.02     0.00    0.00    0.00    0.00
  259    0.00    0.00    0.03    0.18    0.00    0.00   46.21    0.49    3.87    0.22    0.00    0.00    0.00    0.00    0.03     0.00    0.00    0.00    0.00
  260    0.00    0.00    0.02    0.17    0.00    0.00   45.89    0.48    3.62    0.21    0.00    0.00    0.00    0.00    0.06     0.00    0.00    0.00    0.00
  261    8.11    0.02    0.03    0.16    0.01    0.00   46.19    0.27    0.60    0.22    0.14    0.00    0.00    0.00    0.00     0.00    0.00    0.00    0.00
  262    0.00    0.14    0.08    0.16    0.09    0.00   48.12    1.15    2.28    0.39    0.30    0.00    0.00    0.00    0.04     0.01    0.00    0.00    0.00
  263    0.00    0.05    0.08    0.15    0.03    0.00   48.43    0.68    2.45    0.31    0.07    0.00    0.00    0.00    0.02     0.00    0.00    0.00    0.00
  264    0.00    0.18    0.07    0.15    0.01    0.00   48.88    0.78    3.02    0.40    0.81    0.00    0.00    0.00    0.01     0.00    0.00    0.00    0.00
  265    0.00    0.53    0.06    0.15    0.00    0.00   48.66    1.13    3.23    0.71    1.93    0.00    0.00    0.00    0.01     0.02    0.00    0.00    0.00
  266    0.00    0.09    0.05    0.13    0.00    0.00   48.02    0.99    5.17    0.32    0.00    0.00    0.00    0.00    0.01     0.00    0.00    0.00    0.00
  267    0.00    0.00    0.04    0.13    0.00    0.00   47.57    0.62    5.09    0.19    0.00    0.00    0.00    0.00    0.01     0.00    0.00    0.00    0.00
  268    0.00    0.00    0.03    0.12    0.00    0.00   47.29    0.45    3.70    0.17    0.00    0.00    0.00    0.00    0.01     0.00    0.00    0.00    0.00
  269    0.00    0.00    0.03    0.12    0.00    0.00   46.97    0.47    3.25    0.16    0.00    0.00    0.00    0.00    0.00     0.00    0.00    0.00    0.00
  270    0.91    0.02    0.03    0.12    0.02    0.00   47.05    0.48    2.88    0.18    0.18    0.00    0.00    0.00    0.00     0.00    0.00    0.00    0.00
  271    0.00    0.04    0.03    0.11    0.03    0.00   46.85    0.67    4.13    0.20    0.22    0.00    0.00    0.00    0.00     0.00    0.00    0.00    0.00
  272    0.00    0.00    0.02    0.11    0.04    0.00   46.41    0.60    5.43    0.15    0.00    0.00    0.00    0.00    0.00     0.00    0.00    0.00    0.00
  273    0.00    0.00    0.02    0.10    0.01    0.00   46.00    0.58    4.26    0.14    0.00    0.00    0.00    0.00    0.00     0.00    0.00    0.00    0.00
    9   16.95    1.78    1.57    5.70    0.62    0.00   46.00   19.14  106.54    9.48    6.18    0.00    0.01    0.02    0.35     0.07    0.00    0.01    0.00
  274    0.00    0.00    0.02    0.10    0.00    0.00   45.86    0.25    2.41    0.13    0.00    0.00    0.00    0.00    0.00     0.00    0.00    0.00    0.00
  275    0.00    0.00    0.01    0.10    0.00    0.00   45.67    0.29    2.46    0.13    0.00    0.00    0.00    0.00    0.00     0.00    0.00    0.00    0.00
  276    1.43    0.00    0.02    0.10    0.00    0.00   45.98    0.29    1.44    0.14    0.03    0.00    0.00    0.00    0.00     0.00    0.00    0.00    0.00
  277    0.00    0.00    0.03    0.10    0.00    0.00   46.09    0.41    2.88    0.14    0.00    0.00    0.00    0.00    0.00     0.00    0.00    0.00    0.00
  278    0.00    0.00    0.02    0.09    0.00    0.00   45.91    0.34    2.67    0.13    0.00    0.00    0.00    0.00    0.00     0.00    0.00    0.00    0.00
  279    0.00    0.00    0.01    0.09    0.00    0.00   45.81    0.20    1.47    0.12    0.00    0.00    0.00    0.00    0.00     0.00    0.00    0.00    0.00
  280    0.00    0.00    0.01    0.09    0.00    0.00   45.72    0.17    1.45    0.11    0.00    0.00    0.00    0.00    0.00     0.00    0.00    0.00    0.00
  281    0.00    0.00    0.01    0.09    0.00    0.00   45.66    0.13    1.00    0.11    0.00    0.00    0.00    0.00    0.00     0.00    0.00    0.00    0.00
  282    0.62    0.00    0.01    0.09    0.00    0.00   45.59    0.15    1.19    0.11    0.00    0.00    0.00    0.00    0.00     0.00    0.00    0.00    0.00
  283    0.00    0.00    0.01    0.08    0.00    0.00   45.54    0.14    1.11    0.10    0.00    0.00    0.00    0.00    0.00     0.00    0.00    0.00    0.00
  284    2.17    0.05    0.01    0.08    0.01    0.00   45.68    0.24    2.40    0.15    0.34    0.00    0.00    0.00    0.00     0.00    0.00    0.00    0.00
  285    0.00    0.35    0.01    0.08    0.00    0.00   46.16    0.56    2.69    0.38    0.08    0.01    0.00    0.00    0.00     0.04    0.00    0.01    0.00
  286    1.50    1.74    0.01    0.07    0.00    0.00   46.59    0.67    2.77    1.59    6.13    0.01    0.00    0.00    0.00     0.13    0.00    0.02    0.00
  287    0.14    0.02    0.02    0.06    0.02    0.00   46.22    0.69    2.70    0.33    0.02    0.00    0.00    0.00    0.00     0.02    0.00    0.00    0.00
  288    1.65    0.05    0.05    0.06    0.01    0.00   47.15    0.55    1.76    0.22    0.06    0.00    0.00    0.00    0.00     0.00    0.00    0.00    0.00
  289    0.00    0.00    0.04    0.06    0.00    0.00   46.90    0.35    2.09    0.12    0.00    0.00    0.00    0.00    0.00     0.00    0.00    0.00    0.00
  290    0.56    0.00    0.03    0.05    0.00    0.00   46.77    0.19    1.01    0.10    0.00    0.00    0.00    0.00    0.00     0.00    0.00    0.00    0.00
  291   13.36    0.00    0.02    0.05    0.00    0.00   46.78    0.05    0.07    0.09    0.00    0.00    0.00    0.00    0.00     0.00    0.00    0.00    0.00
  292    0.04    0.00    0.03    0.05    0.03    0.00   47.15    0.19    0.56    0.10    0.02    0.00    0.00    0.00    0.00     0.00    0.00    0.00    0.00
  293    2.15    0.00    0.02    0.05    0.01    0.00   47.13    0.08    0.48    0.09    0.00    0.00    0.00    0.00    0.00     0.00    0.00    0.00    0.00
  294    5.31    0.00    0.02    0.05    0.00    0.00   47.13    0.03    0.05    0.08    0.00    0.00    0.00    0.00    0.00     0.00    0.00    0.00    0.00
  295   10.88    0.00    0.01    0.05    0.00    0.00   47.12    0.05    0.22    0.07    0.00    0.00    0.00    0.00    0.00     0.00    0.00    0.00    0.00
  296    0.00    0.00    0.01    0.05    0.00    0.00   47.09    0.12    0.97    0.07    0.00    0.00    0.00    0.00    0.00     0.00    0.00    0.00    0.00
  297    0.00    0.00    0.01    0.05    0.01    0.00   47.08    0.20    0.90    0.07    0.00    0.00    0.00    0.00    0.00     0.00    0.00    0.00    0.00
  298    1.23    0.39    0.03    0.04    0.15    0.00   47.83    0.47    1.37    0.42    0.58    0.00    0.00    0.00    0.00     0.03    0.00    0.00    0.00
  299    0.00    0.17    0.04    0.04    0.13    0.00   48.32    0.24    0.69    0.28    0.00    0.00    0.00    0.00    0.00     0.02    0.00    0.00    0.00
  300    0.00    0.11    0.04    0.04    0.12    0.00   48.74    0.20    0.44    0.22    0.06    0.00    0.00    0.00    0.00     0.01    0.00    0.00    0.00
  301    0.09    0.03    0.04    0.04    0.09    0.00   48.92    0.12    0.32    0.14    0.00    0.00    0.00    0.00    0.00     0.00    0.00    0.00    0.00
  302    0.00    0.05    0.04    0.04    0.09    0.00   49.15    0.27    0.86    0.14    0.01    0.00    0.00    0.00    0.00     0.00    0.00    0.00    0.00
  303    1.54    0.00    0.03    0.04    0.03    0.00   49.11    0.11    0.28    0.09    0.00    0.00    0.00    0.00    0.00     0.00    0.00    0.00    0.00
  304    1.75    0.00    0.03    0.04    0.01    0.00   49.09    0.07    0.21    0.08    0.00    0.00    0.00    0.00    0.00     0.00    0.00    0.00    0.00
   10   44.42    2.96    0.69    2.03    0.72    0.00   49.09    7.82   40.94    6.05    7.34    0.03    0.01    0.02    0.00     0.27    0.00    0.03    0.00
  305    0.79    0.00    0.02    0.04    0.00    0.00   49.09    0.04    0.05    0.07    0.00    0.00    0.00    0.00    0.00     0.00    0.00    0.00    0.00
  306    5.25    0.00    0.02    0.04    0.00    0.00   49.06    0.04    0.23    0.06    0.00    0.00    0.00    0.00    0.00     0.00    0.00    0.00    0.00
  307    0.88    0.00    0.01    0.04    0.00    0.00   49.06    0.02    0.03    0.06    0.00    0.00    0.00    0.00    0.00     0.00    0.00    0.00    0.00
  308    0.28    0.00    0.01    0.04    0.00    0.00   49.04    0.08    0.54    0.06    0.00    0.00    0.00    0.00    0.00     0.00    0.00    0.00    0.00
  309    0.42    0.00    0.01    0.04    0.00    0.00   49.02    0.07    0.26    0.06    0.00    0.00    0.00    0.00    0.00     0.00    0.00    0.00    0.00
  310    1.90    0.00    0.01    0.04    0.00    0.00   48.96    0.09    0.44    0.05    0.00    0.00    0.00    0.00    0.00     0.00    0.00    0.00    0.00
  311    0.94    0.00    0.01    0.03    0.00    0.00   48.87    0.12    0.77    0.05    0.00    0.00    0.00    0.00    0.00     0.00    0.00    0.00    0.00
  312    0.00    0.00    0.00    0.03    0.00    0.00   48.83    0.09    0.46    0.05    0.00    0.00    0.00    0.00    0.00     0.00    0.00    0.00    0.00
  313    0.00    0.00    0.00    0.03    0.00    0.00   48.79    0.09    0.44    0.05    0.00    0.00    0.00    0.00    0.00     0.00    0.00    0.00    0.00
  314    0.27    0.00    0.00    0.03    0.00    0.00   48.78    0.04    0.21    0.05    0.00    0.00    0.00    0.00    0.00     0.00    0.00    0.00    0.00
  315    1.89    0.00    0.00    0.03    0.00    0.00   48.78    0.02    0.02    0.05    0.00    0.00    0.00    0.00    0.00     0.00    0.00    0.00    0.00
  316    0.29    0.00    0.00    0.03    0.00    0.00   48.77    0.05    0.27    0.04    0.00    0.00    0.00    0.00    0.00     0.00    0.00    0.00    0.00
  317    0.00    0.00    0.00    0.03    0.00    0.00   48.73    0.09    0.44    0.04    0.00    0.00    0.00    0.00    0.00     0.00    0.00    0.00    0.00
  318    2.11    0.00    0.00    0.03    0.00    0.00   48.72    0.02    0.13    0.04    0.00    0.00    0.00    0.00    0.00     0.00    0.00    0.00    0.00
  319    4.26    0.00    0.00    0.03    0.00    0.00   48.71    0.03    0.10    0.04    0.00    0.00    0.00    0.00    0.00     0.00    0.00    0.00    0.00
  320    5.83    0.00    0.00    0.03    0.00    0.00   48.71    0.02    0.02    0.04    0.00    0.00    0.00    0.00    0.00     0.00    0.00    0.00    0.00
  321    2.51    0.00    0.00    0.03    0.00    0.00   48.71    0.02    0.03    0.04    0.00    0.00    0.00    0.00    0.00     0.00    0.00    0.00    0.00
  322    0.65    0.00    0.00    0.03    0.00    0.00   48.69    0.05    0.19    0.04    0.00    0.00    0.00    0.00    0.00     0.00    0.00    0.00    0.00
  323    0.00    0.00    0.00    0.03    0.00    0.00   48.67    0.05    0.27    0.04    0.00    0.00    0.00    0.00    0.00     0.00    0.00    0.00    0.00
  324    0.00    0.00    0.00    0.03    0.00    0.00   48.62    0.09    0.61    0.04    0.00    0.00    0.00    0.00    0.00     0.00    0.00    0.00    0.00
  325    0.00    0.00    0.00    0.03    0.00    0.00   48.62    0.04    0.06    0.04    0.00    0.00    0.00    0.00    0.00     0.00    0.00    0.00    0.00
  326    0.00    0.00    0.00    0.03    0.00    0.00   48.62    0.04    0.07    0.04    0.00    0.00    0.00    0.00    0.00     0.00    0.00    0.00    0.00
  327    0.00    0.00    0.00    0.03    0.00    0.00   48.62    0.04    0.08    0.03    0.00    0.00    0.00    0.00    0.00     0.00    0.00    0.00    0.00
  328    0.00    0.00    0.00    0.02    0.00    0.00   48.58    0.08    0.48    0.03    0.00    0.00    0.00    0.00    0.00     0.00    0.00    0.00    0.00
  329    0.00    0.00    0.00    0.02    0.00    0.00   48.55    0.07    0.38    0.03    0.00    0.00    0.00    0.00    0.00     0.00    0.00    0.00    0.00
  330    0.00    0.00    0.00    0.02    0.00    0.00   48.53    0.06    0.28    0.03    0.00    0.00    0.00    0.00    0.00     0.00    0.00    0.00    0.00
  331    0.00    0.00    0.00    0.02    0.00    0.00   48.53    0.05    0.07    0.03    0.00    0.00    0.00    0.00    0.00     0.00    0.00    0.00    0.00
  332    0.00    0.00    0.00    0.02    0.00    0.00   48.53    0.04    0.13    0.03    0.00    0.00    0.00    0.00    0.00     0.00    0.00    0.00    0.00
  333    0.00    0.00    0.00    0.02    0.00    0.00   48.51    0.06    0.23    0.03    0.00    0.00    0.00    0.00    0.00     0.00    0.00    0.00    0.00
  334    0.00    0.00    0.00    0.02    0.00    0.00   48.51    0.05    0.17    0.03    0.00    0.00    0.00    0.00    0.00     0.00    0.00    0.00    0.00
   11   28.25    0.00    0.10    0.91    0.00    0.00   48.51    1.65    7.48    1.30    0.00    0.00    0.00    0.00    0.00     0.00    0.00    0.00    0.00
  335    0.00    0.00    0.00    0.02    0.00    0.00   48.50    0.03    0.11    0.03    0.00    0.00    0.00    0.00    0.00     0.00    0.00    0.00    0.00
  336    0.74    0.00    0.00    0.02    0.00    0.00   48.50    0.02    0.03    0.03    0.00    0.00    0.00    0.00    0.00     0.00    0.00    0.00    0.00
  337    0.00    0.00    0.00    0.02    0.00    0.00   48.47    0.06    0.43    0.03    0.00    0.00    0.00    0.00    0.00     0.00    0.00    0.00    0.00
  338    0.00    0.00    0.00    0.02    0.00    0.00   48.44    0.06    0.47    0.03    0.00    0.00    0.00    0.00    0.00     0.00    0.00    0.00    0.00
  339    0.00    0.00    0.00    0.02    0.00    0.00   48.43    0.03    0.07    0.03    0.00    0.00    0.00    0.00    0.00     0.00    0.00    0.00    0.00
  340    0.54    0.00    0.00    0.02    0.00    0.00   48.43    0.02    0.03    0.03    0.00    0.00    0.00    0.00    0.00     0.00    0.00    0.00    0.00
  341    0.18    0.00    0.00    0.02    0.00    0.00   48.43    0.03    0.05    0.03    0.00    0.00    0.00    0.00    0.00     0.00    0.00    0.00    0.00
  342    1.87    0.00    0.00    0.02    0.00    0.00   48.43    0.01    0.02    0.03    0.00    0.00    0.00    0.00    0.00     0.00    0.00    0.00    0.00
  343    4.08    0.00    0.00    0.02    0.00    0.00   48.43    0.01    0.05    0.03    0.00    0.00    0.00    0.00    0.00     0.00    0.00    0.00    0.00
  344    0.74    0.00    0.00    0.02    0.00    0.00   48.43    0.02    0.04    0.03    0.00    0.00    0.00    0.00    0.00     0.00    0.00    0.00    0.00
  345    0.00    0.00    0.00    0.02    0.00    0.00   48.39    0.06    0.44    0.02    0.00    0.00    0.00    0.00    0.00     0.00    0.00    0.00    0.00
  346    0.00    0.00    0.00    0.02    0.00    0.00   48.39    0.03    0.05    0.02    0.00    0.00    0.00    0.00    0.00     0.00    0.00    0.00    0.00
  347    0.00    0.00    0.00    0.02    0.00    0.00   48.39    0.03    0.05    0.02    0.00    0.00    0.00    0.00    0.00     0.00    0.00    0.00    0.00
  348    0.00    0.00    0.00    0.02    0.00    0.00   48.39    0.04    0.15    0.02    0.00    0.00    0.00    0.00    0.00     0.00    0.00    0.00    0.00
  349    0.00    0.00    0.00    0.02    0.00    0.00   48.38    0.05    0.20    0.02    0.00    0.00    0.00    0.00    0.00     0.00    0.00    0.00    0.00
  350    0.00    0.00    0.00    0.01    0.00    0.00   48.37    0.06    0.22    0.02    0.00    0.00    0.00    0.00    0.00     0.00    0.00    0.00    0.00
  351    0.40    0.00    0.00    0.01    0.00    0.00   48.37    0.02    0.03    0.02    0.00    0.00    0.00    0.00    0.00     0.00    0.00    0.00    0.00
  352    0.83    0.00    0.00    0.01    0.00    0.00   48.37    0.02    0.02    0.02    0.00    0.00    0.00    0.00    0.00     0.00    0.00    0.00    0.00
  353    1.12    0.00    0.00    0.01    0.00    0.00   48.37    0.02    0.04    0.02    0.00    0.00    0.00    0.00    0.00     0.00    0.00    0.00    0.00
  354    0.09    0.00    0.00    0.01    0.00    0.00   48.36    0.04    0.25    0.02    0.00    0.00    0.00    0.00    0.00     0.00    0.00    0.00    0.00
  355    0.93    0.00    0.00    0.01    0.00    0.00   48.36    0.01    0.02    0.02    0.00    0.00    0.00    0.00    0.00     0.00    0.00    0.00    0.00
  356    0.00    0.00    0.00    0.01    0.00    0.00   48.33    0.06    0.43    0.02    0.00    0.00    0.00    0.00    0.00     0.00    0.00    0.00    0.00
  357    0.23    0.00    0.00    0.01    0.00    0.00   48.33    0.03    0.10    0.02    0.00    0.00    0.00    0.00    0.00     0.00    0.00    0.00    0.00
  358    0.40    0.00    0.00    0.01    0.00    0.00   48.32    0.03    0.09    0.02    0.00    0.00    0.00    0.00    0.00     0.00    0.00    0.00    0.00
  359    0.05    0.00    0.00    0.01    0.00    0.00   48.31    0.07    0.32    0.02    0.00    0.00    0.00    0.00    0.00     0.00    0.00    0.00    0.00
  360    0.00    0.00    0.00    0.01    0.00    0.00   48.20    0.25    1.44    0.01    0.00    0.00    0.00    0.00    0.00     0.00    0.00    0.00    0.00
  361    0.14    0.00    0.00    0.01    0.00    0.00   48.20    0.04    0.05    0.01    0.00    0.00    0.00    0.00    0.00     0.00    0.00    0.00    0.00
  362    0.38    0.00    0.00    0.01    0.00    0.00   48.19    0.02    0.06    0.01    0.00    0.00    0.00    0.00    0.00     0.00    0.00    0.00    0.00
  363    0.03    0.00    0.00    0.01    0.00    0.00   48.17    0.07    0.54    0.01    0.00    0.00    0.00    0.00    0.00     0.00    0.00    0.00    0.00
  364    0.94    0.00    0.00    0.01    0.00    0.00   48.17    0.02    0.05    0.01    0.00    0.00    0.00    0.00    0.00     0.00    0.00    0.00    0.00
  365    0.00    0.00    0.00    0.01    0.00    0.00   48.17    0.04    0.06    0.01    0.00    0.00    0.00    0.00    0.00     0.00    0.00    0.00    0.00
   12   13.69    0.00    0.00    0.43    0.00    0.00   48.17    1.33    5.92    0.67    0.00    0.00    0.00    0.00    0.00     0.00    0.00    0.00    0.00

 2015  386.09  172.10   20.43   42.93   57.45    0.00   48.17  162.86  663.55  237.96  352.81    1.24    0.29    2.89   18.94    31.49    0.02    3.88    0.00
1
    SWAT Sep 7    VER 2018/Rev 670                                                  

    General Input/Output section (file.cio):                                        
    5/13/2020 12:00:00 AM ARCGIS-SWAT interface AV                                  
                                                                                    
Annual Summary for Watershed in year    7 of simulation

UNIT                                    PERCO    TILE                           WATER     SED     NO3     NO3     NO3     NO3        N       P       P
TIME     PREC    SURQ    LATQ     GWQ    LATE       Q     SW       ET     PET   YIELD   YIELD    SURQ    LATQ    PERC    CROP  ORGANIC SOLUBLE ORGANIC TILENO3
         (mm)    (mm)    (mm)    (mm)    (mm)    (mm)    (mm)    (mm)    (mm)    (mm)   (t/ha)  ------------------(kg nutrient/ha)-------------------- (kg/ha)
    1    0.00    0.00    0.00    0.01    0.00    0.00   48.17    0.03    0.04    0.01    0.00    0.00    0.00    0.00    0.00     0.00    0.00    0.00    0.00
    2    0.00    0.00    0.00    0.01    0.00    0.00   48.17    0.03    0.04    0.01    0.00    0.00    0.00    0.00    0.00     0.00    0.00    0.00    0.00
    3    1.02    0.00    0.00    0.01    0.00    0.00   48.17    0.01    0.02    0.01    0.00    0.00    0.00    0.00    0.00     0.00    0.00    0.00    0.00
    4    0.03    0.00    0.00    0.01    0.00    0.00   48.17    0.02    0.05    0.01    0.00    0.00    0.00    0.00    0.00     0.00    0.00    0.00    0.00
    5    0.12    0.00    0.00    0.01    0.00    0.00   48.16    0.03    0.25    0.01    0.00    0.00    0.00    0.00    0.00     0.00    0.00    0.00    0.00
    6    0.64    0.00    0.00    0.01    0.00    0.00   48.16    0.01    0.03    0.01    0.00    0.00    0.00    0.00    0.00     0.00    0.00    0.00    0.00
    7    0.70    0.00    0.00    0.01    0.00    0.00   48.16    0.01    0.02    0.01    0.00    0.00    0.00    0.00    0.00     0.00    0.00    0.00    0.00
    8    0.00    0.00    0.00    0.01    0.00    0.00   48.15    0.04    0.34    0.01    0.00    0.00    0.00    0.00    0.00     0.00    0.00    0.00    0.00
    9    0.17    0.00    0.00    0.01    0.00    0.00   48.15    0.03    0.09    0.01    0.00    0.00    0.00    0.00    0.00     0.00    0.00    0.00    0.00
   10    0.06    0.00    0.00    0.01    0.00    0.00   48.15    0.04    0.09    0.01    0.00    0.00    0.00    0.00    0.00     0.00    0.00    0.00    0.00
   11    0.05    0.00    0.00    0.01    0.00    0.00   48.14    0.04    0.24    0.01    0.00    0.00    0.00    0.00    0.00     0.00    0.00    0.00    0.00
   12    0.06    0.00    0.00    0.01    0.00    0.00   48.13    0.04    0.31    0.01    0.00    0.00    0.00    0.00    0.00     0.00    0.00    0.00    0.00
   13    0.00    0.00    0.00    0.01    0.00    0.00   48.13    0.03    0.04    0.01    0.00    0.00    0.00    0.00    0.00     0.00    0.00    0.00    0.00
   14    0.00    0.00    0.00    0.01    0.00    0.00   48.13    0.03    0.05    0.01    0.00    0.00    0.00    0.00    0.00     0.00    0.00    0.00    0.00
   15    0.54    0.00    0.00    0.01    0.00    0.00   48.13    0.02    0.02    0.01    0.00    0.00    0.00    0.00    0.00     0.00    0.00    0.00    0.00
   16    0.63    0.00    0.00    0.01    0.00    0.00   48.13    0.01    0.02    0.01    0.00    0.00    0.00    0.00    0.00     0.00    0.00    0.00    0.00
   17    0.00    0.00    0.00    0.01    0.00    0.00   48.12    0.04    0.42    0.01    0.00    0.00    0.00    0.00    0.00     0.00    0.00    0.00    0.00
   18    0.02    0.00    0.00    0.01    0.00    0.00   48.11    0.03    0.22    0.01    0.00    0.00    0.00    0.00    0.00     0.00    0.00    0.00    0.00
   19    0.15    0.00    0.00    0.00    0.00    0.00   48.11    0.02    0.10    0.01    0.00    0.00    0.00    0.00    0.00     0.00    0.00    0.00    0.00
   20    0.00    0.00    0.00    0.00    0.00    0.00   48.11    0.02    0.07    0.01    0.00    0.00    0.00    0.00    0.00     0.00    0.00    0.00    0.00
   21    0.00    0.00    0.00    0.00    0.00    0.00   48.10    0.02    0.16    0.01    0.00    0.00    0.00    0.00    0.00     0.00    0.00    0.00    0.00
   22    0.00    0.00    0.00    0.00    0.00    0.00   48.10    0.03    0.19    0.01    0.00    0.00    0.00    0.00    0.00     0.00    0.00    0.00    0.00
   23    0.00    0.00    0.00    0.00    0.00    0.00   48.10    0.02    0.08    0.01    0.00    0.00    0.00    0.00    0.00     0.00    0.00    0.00    0.00
   24    0.00    0.00    0.00    0.00    0.00    0.00   48.09    0.02    0.17    0.01    0.00    0.00    0.00    0.00    0.00     0.00    0.00    0.00    0.00
   25    0.00    0.00    0.00    0.00    0.00    0.00   48.09    0.02    0.06    0.01    0.00    0.00    0.00    0.00    0.00     0.00    0.00    0.00    0.00
   26    0.48    0.00    0.00    0.00    0.00    0.00   48.09    0.01    0.02    0.01    0.00    0.00    0.00    0.00    0.00     0.00    0.00    0.00    0.00
   27    1.29    0.00    0.00    0.00    0.00    0.00   48.09    0.02    0.13    0.01    0.00    0.00    0.00    0.00    0.00     0.00    0.00    0.00    0.00
   28    2.02    0.00    0.00    0.00    0.00    0.00   48.09    0.02    0.02    0.01    0.00    0.00    0.00    0.00    0.00     0.00    0.00    0.00    0.00
   29    0.76    0.00    0.00    0.00    0.00    0.00   48.08    0.03    0.21    0.01    0.00    0.00    0.00    0.00    0.00     0.00    0.00    0.00    0.00
   30    0.16    0.00    0.00    0.00    0.00    0.00   48.07    0.02    0.12    0.01    0.00    0.00    0.00    0.00    0.00     0.00    0.00    0.00    0.00
   31    0.16    0.00    0.00    0.00    0.00    0.00   48.05    0.05    0.49    0.01    0.00    0.00    0.00    0.00    0.00     0.00    0.00    0.00    0.00
    1    9.04    0.00    0.00    0.16    0.00    0.00   48.05    0.78    4.10    0.33    0.00    0.00    0.00    0.00    0.00     0.00    0.00    0.00    0.00
   32    0.00    0.00    0.00    0.00    0.00    0.00   48.02    0.10    0.89    0.01    0.00    0.00    0.00    0.00    0.00     0.00    0.00    0.00    0.00
   33    0.00    0.00    0.00    0.00    0.00    0.00   48.01    0.10    0.72    0.01    0.00    0.00    0.00    0.00    0.00     0.00    0.00    0.00    0.00
   34    0.00    0.00    0.00    0.00    0.00    0.00   48.01    0.07    0.11    0.01    0.00    0.00    0.00    0.00    0.00     0.00    0.00    0.00    0.00
   35    0.00    0.00    0.00    0.00    0.00    0.00   48.01    0.06    0.10    0.01    0.00    0.00    0.00    0.00    0.00     0.00    0.00    0.00    0.00
   36    0.00    0.00    0.00    0.00    0.00    0.00   47.99    0.10    0.78    0.01    0.00    0.00    0.00    0.00    0.00     0.00    0.00    0.00    0.00
   37    0.00    0.00    0.00    0.00    0.00    0.00   47.98    0.06    0.34    0.01    0.00    0.00    0.00    0.00    0.00     0.00    0.00    0.00    0.00
   38    0.90    0.00    0.00    0.00    0.00    0.00   47.98    0.03    0.05    0.01    0.00    0.00    0.00    0.00    0.00     0.00    0.00    0.00    0.00
   39    0.00    0.00    0.00    0.00    0.00    0.00   47.98    0.05    0.13    0.01    0.00    0.00    0.00    0.00    0.00     0.00    0.00    0.00    0.00
   40    0.00    0.00    0.00    0.00    0.00    0.00   47.98    0.04    0.08    0.01    0.00    0.00    0.00    0.00    0.00     0.00    0.00    0.00    0.00
   41    0.01    0.00    0.00    0.00    0.00    0.00   47.98    0.04    0.21    0.01    0.00    0.00    0.00    0.00    0.00     0.00    0.00    0.00    0.00
   42    0.00    0.00    0.00    0.00    0.00    0.00   47.98    0.05    0.26    0.01    0.00    0.00    0.00    0.00    0.00     0.00    0.00    0.00    0.00
   43    0.00    0.00    0.00    0.00    0.00    0.00   47.98    0.05    0.12    0.01    0.00    0.00    0.00    0.00    0.00     0.00    0.00    0.00    0.00
   44    0.11    0.00    0.00    0.00    0.00    0.00   47.96    0.08    0.55    0.00    0.00    0.00    0.00    0.00    0.00     0.00    0.00    0.00    0.00
   45    0.07    0.00    0.00    0.00    0.00    0.00   47.94    0.05    0.47    0.00    0.00    0.00    0.00    0.00    0.00     0.00    0.00    0.00    0.00
   46    1.76    0.00    0.00    0.00    0.00    0.00   47.94    0.03    0.07    0.00    0.00    0.00    0.00    0.00    0.00     0.00    0.00    0.00    0.00
   47    0.00    0.00    0.00    0.00    0.00    0.00   47.93    0.06    0.45    0.00    0.00    0.00    0.00    0.00    0.00     0.00    0.00    0.00    0.00
   48    0.00    0.00    0.00    0.00    0.00    0.00   47.93    0.04    0.18    0.00    0.00    0.00    0.00    0.00    0.00     0.00    0.00    0.00    0.00
   49    0.00    0.00    0.00    0.00    0.00    0.00   47.93    0.04    0.05    0.00    0.00    0.00    0.00    0.00    0.00     0.00    0.00    0.00    0.00
   50    0.00    0.00    0.00    0.00    0.00    0.00   47.93    0.04    0.17    0.00    0.00    0.00    0.00    0.00    0.00     0.00    0.00    0.00    0.00
   51    0.00    0.00    0.00    0.00    0.00    0.00   47.93    0.05    0.08    0.00    0.00    0.00    0.00    0.00    0.00     0.00    0.00    0.00    0.00
   52    0.00    0.00    0.00    0.00    0.00    0.00   47.93    0.06    0.19    0.00    0.00    0.00    0.00    0.00    0.00     0.00    0.00    0.00    0.00
   53    0.18    0.00    0.00    0.00    0.00    0.00   47.93    0.07    0.30    0.00    0.00    0.00    0.00    0.00    0.00     0.00    0.00    0.00    0.00
   54    1.08    0.00    0.00    0.00    0.00    0.00   47.93    0.04    0.07    0.00    0.00    0.00    0.00    0.00    0.00     0.00    0.00    0.00    0.00
   55    0.00    0.00    0.00    0.00    0.00    0.00   47.93    0.06    0.12    0.00    0.00    0.00    0.00    0.00    0.00     0.00    0.00    0.00    0.00
   56    0.00    0.00    0.00    0.00    0.00    0.00   47.89    0.12    1.18    0.00    0.00    0.00    0.00    0.00    0.00     0.00    0.00    0.00    0.00
   57    0.00    0.00    0.00    0.00    0.00    0.00   47.85    0.11    1.05    0.00    0.00    0.00    0.00    0.00    0.00     0.00    0.00    0.00    0.00
   58    0.00    0.00    0.00    0.00    0.00    0.00   47.83    0.06    0.49    0.00    0.00    0.00    0.00    0.00    0.00     0.00    0.00    0.00    0.00
   59    0.00    0.00    0.00    0.00    0.00    0.00   47.83    0.06    0.17    0.00    0.00    0.00    0.00    0.00    0.00     0.00    0.00    0.00    0.00
   60    0.00    0.00    0.00    0.00    0.00    0.00   47.82    0.10    0.76    0.00    0.00    0.00    0.00    0.00    0.00     0.00    0.00    0.00    0.00
    2    4.11    0.00    0.00    0.02    0.00    0.00   47.82    1.83   10.17    0.14    0.00    0.00    0.00    0.00    0.00     0.00    0.00    0.00    0.00
   61    0.03    0.10    0.00    0.00    0.00    0.00   48.04    0.26    1.20    0.08    0.21    0.00    0.00    0.00    0.00     0.07    0.00    0.01    0.00
   62    0.00    0.05    0.00    0.00    0.00    0.00   48.19    0.28    0.97    0.06    0.03    0.00    0.00    0.00    0.00     0.04    0.00    0.01    0.00
   63    0.00    0.00    0.00    0.00    0.00    0.00   48.16    0.12    0.65    0.01    0.00    0.00    0.00    0.00    0.00     0.01    0.00    0.00    0.00
   64    0.00    0.00    0.00    0.00    0.00    0.00   48.14    0.11    0.60    0.01    0.00    0.00    0.00    0.00    0.00     0.00    0.00    0.00    0.00
   65    0.00    0.00    0.00    0.00    0.00    0.00   48.12    0.14    0.58    0.00    0.00    0.00    0.00    0.00    0.00     0.00    0.00    0.00    0.00
   66    0.00    0.00    0.00    0.00    0.00    0.00   48.04    0.18    1.27    0.00    0.00    0.00    0.00    0.00    0.00     0.00    0.00    0.00    0.00
   67    0.00    0.00    0.00    0.00    0.00    0.00   48.03    0.19    0.91    0.00    0.00    0.00    0.00    0.00    0.00     0.00    0.00    0.00    0.00
   68    0.00    0.00    0.00    0.00    0.00    0.00   47.97    0.16    1.04    0.00    0.00    0.00    0.00    0.00    0.00     0.00    0.00    0.00    0.00
   69    0.09    0.00    0.00    0.00    0.00    0.00   47.96    0.08    0.33    0.00    0.00    0.00    0.00    0.00    0.00     0.00    0.00    0.00    0.00
   70    0.00    0.00    0.00    0.00    0.00    0.00   47.92    0.11    0.67    0.00    0.00    0.00    0.00    0.00    0.00     0.00    0.00    0.00    0.00
   71    1.77    0.00    0.00    0.00    0.00    0.00   47.92    0.03    0.04    0.00    0.00    0.00    0.00    0.00    0.00     0.00    0.00    0.00    0.00
   72    0.69    0.00    0.00    0.00    0.00    0.00   47.91    0.05    0.30    0.00    0.00    0.00    0.00    0.00    0.00     0.00    0.00    0.00    0.00
   73    1.92    0.00    0.00    0.00    0.00    0.00   47.91    0.03    0.05    0.00    0.00    0.00    0.00    0.00    0.00     0.00    0.00    0.00    0.00
   74    0.44    0.00    0.00    0.00    0.00    0.00   47.90    0.05    0.31    0.00    0.00    0.00    0.00    0.00    0.00     0.00    0.00    0.00    0.00
   75    1.87    0.00    0.00    0.00    0.00    0.00   47.90    0.04    0.05    0.00    0.00    0.00    0.00    0.00    0.00     0.00    0.00    0.00    0.00
   76    1.02    0.00    0.00    0.00    0.00    0.00   47.90    0.04    0.06    0.00    0.00    0.00    0.00    0.00    0.00     0.00    0.00    0.00    0.00
   77    1.93    0.00    0.00    0.00    0.00    0.00   47.90    0.03    0.04    0.00    0.00    0.00    0.00    0.00    0.00     0.00    0.00    0.00    0.00
   78    1.29    0.00    0.00    0.00    0.00    0.00   47.90    0.06    0.08    0.00    0.00    0.00    0.00    0.00    0.00     0.00    0.00    0.00    0.00
   79    0.00    0.00    0.00    0.00    0.00    0.00   47.86    0.24    1.49    0.00    0.00    0.00    0.00    0.00    0.00     0.00    0.00    0.00    0.00
   80    0.00    0.00    0.00    0.00    0.00    0.00   47.83    0.13    0.65    0.00    0.00    0.00    0.00    0.00    0.00     0.00    0.00    0.00    0.00
   81    0.00    0.00    0.00    0.00    0.00    0.00   47.79    0.16    0.97    0.00    0.00    0.00    0.00    0.00    0.00     0.00    0.00    0.00    0.00
[...]
     80  12   I-Bh-2c-   .279E+02   91.00   70.00    8.09    0.00    0.00    0.00    0.20  454.37  261.39   90.48   80.34 2940.83    0.18   37.73    0.00    0.00  261.39
     81  12   I-K-U-2c   .620E+02   91.00   60.00    8.46    0.00    0.00    0.00    0.20  454.37  262.08   89.72   81.10 2359.82    0.11   21.24    0.00    0.00  262.08
     82  13   I-K-U-2c   .156E+03   79.00   60.00    0.82    0.00    0.00    0.00    0.20  275.03  107.66    0.21  136.37   53.29    0.03   21.45    0.00    0.00  107.66
     83  13   I-K-U-2c   .209E+03   79.00   60.00    4.57    0.00    0.00    0.00    0.20  275.03  106.11    7.98  133.40  366.92    0.17   21.55    0.00    0.00  106.11
     84  13   I-K-U-2c   .767E+02   91.00   60.00    3.42    0.00    0.00    0.00    0.20  275.03  133.08   31.05   86.63  530.33    0.15   21.26    0.00    0.00  133.08
     85  13   I-K-U-2c   .863E+02   91.00   60.00    0.82    0.00    0.00    0.00    0.20  275.03  133.23   31.70   88.64   81.67    0.03   21.43    0.00    0.00  133.23
     86  13   I-K-U-2c   .813E+02   91.00   60.00    0.72    0.00    0.00    0.00    0.20  275.03  133.21   31.37   89.09   62.49    0.03   21.28    0.00    0.00  133.21
     87  13   I-K-U-2c   .160E+03   91.00   60.00    7.83    0.00    0.00    0.00    0.20  275.03  132.90   29.85   87.25  969.11    0.23   21.25    0.00    0.00  132.90
     88  14   I-K-U-2c   .456E+01   91.00   60.00    0.46    0.00    0.00    0.00    0.20  263.11  124.73   22.37   88.52   24.51    0.03   20.31    0.00    0.00  124.73
     89  14   I-K-U-2c   .114E+01   91.00   60.00    3.50    0.00    0.00    0.00    0.20  263.11  124.60   20.61   89.13  424.59    0.08   21.38    0.00    0.00  124.60
     90  14   I-K-U-2c   .468E+01   91.00   60.00    0.54    0.00    0.00    0.00    0.20  263.11  124.81   23.32   87.32   29.41    0.03   20.65    0.00    0.00  124.81
     91  15   I-K-U-2c   .100E+03   79.00   60.00    0.78    0.00    0.00    0.00    0.20  174.99   38.91    0.14  129.78   14.56    0.01   14.90    0.00    0.00   38.91
     92  15   I-K-U-2c   .145E+03   79.00   60.00    4.89    0.00    0.00    0.00    0.20  174.99   37.91    5.61  125.11  114.84    0.08   21.57    0.00    0.00   37.91
     93  15   I-Y-2c-3   .437E+02   84.00   70.00    0.80    0.00    0.00    0.00    0.20  174.99   50.10    0.05  117.97   30.56    0.02    8.82    0.00    0.00   50.10
     94  15   I-Y-2c-3   .688E+02   84.00   70.00    6.47    0.00    0.00    0.00    0.20  174.99   49.97    2.60  115.59  346.24    0.07   11.03    0.00    0.00   49.97
     95  15   I-K-U-2c   .652E+02   91.00   60.00    0.75    0.00    0.00    0.00    0.20  174.99   67.34    0.09   76.84   30.04    0.04   19.06    0.00    0.00   67.34
     96  15   I-K-U-2c   .389E+02   91.00   60.00    4.25    0.00    0.00    0.00    0.20  174.99   67.31    6.12   73.84  341.92    0.19   21.40    0.00    0.00   67.31
     97  15   I-Y-2c-3   .278E+02   94.00   70.00    8.36    0.00    0.00    0.00    0.20  174.99   72.87    4.46   72.92 1024.88    0.23   10.84    0.00    0.00   72.87
     98  15   I-Y-2c-3   .176E+02   94.00   70.00    0.84    0.00    0.00    0.00    0.20  174.99   72.94    0.08   73.86   61.11    0.04   10.14    0.00    0.00   72.94
     99  15   GLACIER-   .457E+02   94.00   15.24   10.62    0.00    0.00    0.00    0.20  174.99   81.59   11.20   75.52    0.24    1.48    0.40    0.00    0.00   81.59
    100  15   I-K-U-2c   .417E+02   91.00   60.00    0.33    0.00    0.00    0.00    0.20  174.99   67.32    0.05   77.71   12.63    0.04   16.42    0.00    0.00   67.32
    101  15   I-K-U-2c   .371E+02   91.00   60.00    7.47    0.00    0.00    0.00    0.20  174.99   67.28    8.32   73.47  616.61    0.23   21.25    0.00    0.00   67.28
    102  15   I-Y-2c-3   .153E+02   94.00   70.00    0.31    0.00    0.00    0.00    0.20  174.99   72.94    0.02   73.55   16.61    0.04    8.39    0.00    0.00   72.94
    103  15   I-Y-2c-3   .339E+02   94.00   70.00   10.99    0.00    0.00    0.00    0.20  174.99   72.86    5.23   72.63 1294.35    0.27   10.84    0.00    0.00   72.86
    104  15   GLACIER-   .751E+02   92.00   15.24    6.95    0.00    0.00    0.00    0.20  174.99    0.00    0.00 1003.73    0.00    0.00    0.00    0.00    0.00    0.00
    105  15   GLACIER-   .182E+02   92.00   15.24    1.42    0.00    0.00    0.00    0.20  174.99    0.00    0.00 1003.73    0.00    0.00    0.00    0.00    0.00    0.00
    106  16   I-Bh-2c-   .156E+02   79.00   70.00    1.20    0.00    0.00    0.00    0.20  185.25   45.56    0.22  126.22   39.97    0.05   34.47    0.00    0.00   45.56
    107  16   I-Bh-2c-   .888E+02   79.00   70.00    6.22    0.00    0.00    0.00    0.20  185.25   45.16    7.47  121.82  227.09    0.17   39.78    0.00    0.00   45.16
    108  16   I-Bh-2c-   .122E+02   91.00   70.00    1.05    0.00    0.00    0.00    0.20  185.25   77.22    0.21   87.27   73.25    0.11   37.71    0.00    0.00   77.22
    109  16   I-Bh-2c-   .382E+02   91.00   70.00    5.10    0.00    0.00    0.00    0.20  185.25   77.05    6.92   82.61  518.70    0.29   37.86    0.00    0.00   77.05
    110  16   I-Bh-2c-   .870E+02   91.00   70.00   10.62    0.00    0.00    0.00    0.20  185.25   77.03   10.50   81.36  818.57    0.37   37.73    0.00    0.00   77.03
    111  16   I-Y-2c-3   .166E+02   94.00   70.00   11.80    0.00    0.00    0.00    0.20  185.25   82.70    4.93   74.28 1953.31    0.34   10.84    0.00    0.00   82.70
    112  16   I-Bh-2c-   .219E+02   92.00   70.00   11.24    0.00    0.00    0.00    0.20  185.25    0.00    0.00  971.73    0.00    0.00    0.00    0.00    0.00    0.00
    113  16   I-Y-2c-3   .190E+02   92.00   70.00   11.82    0.00    0.00    0.00    0.20  185.25    0.00    0.00  971.73    0.00    0.00    0.00    0.00    0.00    0.00
    114  17   I-Bh-2c-   .378E+02   79.00   70.00    9.20    0.00    0.00    0.00    0.20  233.17   69.11   13.99  132.05  623.69    0.15   37.73    0.00    0.00   69.11
    115  17   I-K-U-2c   .357E+02   79.00   60.00    0.82    0.00    0.00    0.00    0.20  233.17   74.58    0.20  132.47   34.11    0.02   20.35    0.00    0.00   74.58
    116  17   I-K-U-2c   .135E+03   79.00   60.00    5.61    0.00    0.00    0.00    0.20  233.17   73.80    8.55  130.02  244.49    0.14   21.75    0.00    0.00   73.80
    117  17   I-K-U-2c   .933E+02   91.00   60.00    3.62    0.00    0.00    0.00    0.20  233.17   99.53   27.88   80.93  355.58    0.15   21.39    0.00    0.00   99.53
    118  17   I-K-U-2c   .613E+02   91.00   60.00    0.85    0.00    0.00    0.00    0.20  233.17   99.77   26.69   83.21   55.16    0.03   20.68    0.00    0.00   99.77
    119  17   I-K-U-2c   .102E+03   91.00   60.00    4.91    0.00    0.00    0.00    0.20  233.17   99.46   27.72   80.33  466.85    0.18   21.29    0.00    0.00   99.46
    120  17   I-K-U-2c   .106E+03   91.00   60.00    0.67    0.00    0.00    0.00    0.20  233.17   99.70   26.97   84.00   38.16    0.03   20.07    0.00    0.00   99.70
    121  18   I-Bh-2c-   .269E+02   81.00   70.00    0.98    0.00  115.30    0.00    0.20  679.48  345.87  132.33  183.01   12.37    6.63   60.27    3.65    1.13  345.87
    122  18   I-Bh-2c-   .177E+03   81.00   70.00    6.70    0.00  136.15    0.00    0.20  679.48  334.20  147.22  178.21   83.81   11.38   81.91    3.47    1.08  334.20
    123  18   GLACIER-   .621E+02   84.00   15.24   10.67    0.00    9.95    0.00    0.20  679.48  470.34   82.10   90.92    0.01    1.94    0.03    0.30    0.00  470.34
    124  18   I-Bh-2c-   .429E+02   79.00   70.00    1.10    0.00    0.00    0.00    0.20  679.48  344.17  149.35  148.80    7.15    0.50   31.16    0.59    0.00  344.17
    125  18   I-Bh-2c-   .323E+03   79.00   70.00    7.41    0.00    9.58    0.00    0.20  679.48  332.11  166.33  145.87   35.82    0.95   52.49    0.59    0.00  332.11
    126  19   I-K-U-2c   .104E+02   83.00   60.00    3.91    0.00   19.80    0.00    0.20  296.25  127.15   37.29  102.66  452.06    0.41   32.20    0.00    0.00  127.15
    127  19   I-K-U-2c   .105E+02   83.00   60.00    1.00    0.00   18.04    0.00    0.20  296.25  127.69   30.55  104.57   75.26    0.25   28.44    0.00    0.00  127.69
    128  19   I-Bh-2c-   .156E+02   79.00   70.00    7.67    0.00    0.00    0.00    0.20  296.25  115.56   16.78  132.01  804.25    0.20   39.45    0.00    0.00  115.56
    129  19   I-K-U-2c   .512E+02   79.00   60.00    5.10    0.00    0.00    0.00    0.20  296.25  116.41   10.65  134.94  382.38    0.13   22.83    0.00    0.00  116.41
    130  19   I-K-U-2c   .792E+01   79.00   60.00    1.33    0.00    0.00    0.00    0.20  296.25  118.40    0.37  137.08   75.44    0.02   21.56    0.00    0.00  118.40
    131  19   I-K-U-2c   .954E+01   91.00   60.00    0.93    0.00    0.00    0.00    0.20  296.25  143.63   30.85   97.05  112.48    0.02   21.67    0.00    0.00  143.64
    132  19   I-K-U-2c   .232E+02   91.00   60.00    4.43    0.00    0.00    0.00    0.20  296.25  143.50   33.32   94.10  900.44    0.13   21.24    0.00    0.00  143.50
    133  19   I-K-U-2c   .197E+02   91.00   60.00    7.70    0.00    0.00    0.00    0.20  296.25  143.50   28.44   95.95 1650.45    0.16   21.24    0.00    0.00  143.51
    134  19   I-K-U-2c   .519E+01   91.00   60.00    0.82    0.00    0.00    0.00    0.20  296.25  143.61   30.16   97.66   94.52    0.02   21.59    0.00    0.00  143.61
    135  20   I-Bh-2c-   .129E+03   81.00   70.00    6.88    0.00  112.94   16.19    0.20  333.76  162.62   12.06  155.62   37.97    9.56  153.14    0.00    0.00  162.62
    136  20   I-Bh-2c-   .163E+02   81.00   70.00    1.13    0.00  116.51    0.00    0.20  333.76  162.75    0.32  167.45    5.84    8.29   82.49    0.00    0.00  162.75
    137  20   I-K-U-2c   .151E+03   81.00   60.00    8.75    0.00  110.99   15.84    0.20  333.76  165.64   10.34  154.12   44.18    9.26  133.68    0.00    0.00  165.64
    138  20   I-Bh-2c-   .372E+03   79.00   70.00    7.23    0.00    0.00    0.00    0.20  333.76  169.54   15.04  123.82   98.21    0.97   46.66    0.07    0.00  169.54
    139  20   I-K-U-2c   .368E+03   79.00   60.00    8.83    0.00    0.00    0.00    0.20  333.76  168.64   13.88  121.49  115.36    0.90   28.27    0.07    0.00  168.64
    140  21   I-Bh-2c-   .169E+03   79.00   70.00    8.83    0.00    0.00    0.00    0.20  258.95  101.09   13.69  131.78  429.03    0.62   39.39    0.00    0.00  101.09
    141  21   I-Bh-2c-   .745E+02   91.00   70.00   10.22    0.00    0.00    0.00    0.20  258.95  124.91   16.59   94.26 1542.02    0.95   37.73    0.00    0.00  124.91
    142  22   I-Bh-2c-   .272E+03   81.00   70.00    5.34    0.00   87.25    0.00    0.20  467.49  164.15  103.34  174.67   31.20    3.54   60.99    0.00    0.00  164.15
    143  22   I-Bh-2c-   .897E+02   81.00   70.00    0.78    0.00   85.91    0.00    0.20  467.49  167.43   92.01  183.63    4.45    3.50   31.21    0.00    0.00  167.43
    144  22   I-Bh-2c-   .443E+03   79.00   70.00    5.75    0.00    0.00    0.00    0.20  467.49  177.37  123.36  133.23    4.68    1.43   26.95    1.71    0.00  177.37
    145  22   I-Bh-2c-   .685E+02   79.00   70.00    1.03    0.00    0.00    0.00    0.20  467.49  181.14  114.54  137.62    0.92    1.25    8.27    1.88    0.00  181.14
    146  23   I-Bh-2c-   .153E+02   79.00   70.00    1.20    0.00    0.00    0.00    0.20  163.67   39.80    0.17  113.74   29.61    0.21   33.20    0.00    0.00   39.80
    147  23   I-Bh-2c-   .120E+03   79.00   70.00    7.49    0.00    0.00    0.00    0.20  163.67   39.34    6.69  108.35  198.25    0.35   38.07    0.00    0.00   39.34
    148  23   I-Y-2c-3   .373E+02   84.00   70.00    7.57    0.00    0.00    0.00    0.20  163.67   53.82    1.91   98.18  488.53    0.37   10.81    0.00    0.00   53.82
    149  23   I-Bh-2c-   .718E+01   91.00   70.00    1.08    0.00    0.00    0.00    0.20  163.67   68.45    0.17   86.38   62.21    0.45   37.14    0.00    0.00   68.45
    150  23   I-Bh-2c-   .539E+02   91.00   70.00    7.83    0.00    0.00    0.00    0.20  163.67   68.38    7.07   81.32  650.15    0.59   37.73    0.00    0.00   68.38
    151  23   I-Y-2c-3   .129E+01   94.00   70.00    1.25    0.00    0.00    0.00    0.20  163.67   74.88    0.07   73.82   86.44    0.42   10.66    0.00    0.00   74.88
    152  23   I-Y-2c-3   .759E+01   94.00   70.00    5.58    0.00    0.00    0.00    0.20  163.67   74.80    2.33   73.54  905.06    0.54   10.84    0.00    0.00   74.80
    153  23   I-Bh-2c-   .133E+03   91.00   70.00   10.19    0.00    0.00    0.00    0.20  163.67   68.27    7.75   81.07  591.35    0.63   37.73    0.00    0.00   68.27
    154  23   I-Y-2c-3   .107E+03   94.00   70.00   10.19    0.00    0.00    0.00    0.20  163.67   74.81    3.59   71.78  886.97    0.60   10.84    0.00    0.00   74.81
    155  23   I-Bh-2c-   .135E+02   92.00   70.00   10.06    0.00    0.00    0.00    0.20  163.67    0.00    0.00  978.53    0.00    0.00    0.00    0.00    0.00    0.00
    156  23   I-Y-2c-3   .708E+02   92.00   70.00   11.05    0.00    0.00    0.00    0.20  163.67    0.00    0.00  978.53    0.00    0.00    0.00    0.00    0.00    0.00



                AVE MONTHLY BASIN VALUES
                   SNOW                      WATER               SED
  MON     RAIN     FALL   SURF Q    LAT Q    YIELD       ET    YIELD      PET
          (MM)     (MM)     (MM)     (MM)     (MM)     (MM)   (T/HA)     (MM)
    1     7.72     7.44     0.00     0.00     0.22     1.18     0.00     4.58
    2     8.10     7.78     0.00     0.00     0.10     1.71     0.00     8.03
    3    21.27    20.42     0.08     0.00     0.15     2.83     0.12    14.02
    4    63.81    59.98     2.08     0.00     2.08     5.27     3.11    19.92
    5    80.52    43.29    88.97     5.75    96.69    20.96   142.76    50.30
    6    72.44    44.50    71.20     7.36    87.95    38.53   153.44   109.23
    7    33.61    11.35    19.69     4.64    41.18    38.40    76.78   154.25
    8    33.36     5.82     5.88     2.21    22.52    28.50    25.36   153.42
    9    16.54    12.77     1.22     1.20     9.26    17.03     4.02    98.27
   10    41.68    37.30     2.77     0.60     6.10     7.09     5.07    34.21
   11    40.34    37.86     0.00     0.08     1.27     1.67     0.00     6.52
   12    15.85    14.23     0.33     0.00     0.98     1.42     0.50     5.59

     AVE ANNUAL BASIN STRESS DAYS
               WATER STRESS DAYS =     8.44
               TEMPERATURE STRESS DAYS =   169.55
               NITROGEN STRESS DAYS =     3.70
               PHOSPHORUS STRESS DAYS =     0.09
               AERATION STRESS DAYS =     0.00
1
    SWAT Sep 7    VER 2018/Rev 670                                                  

    General Input/Output section (file.cio):                                        
    5/13/2020 12:00:00 AM ARCGIS-SWAT interface AV                                  
                                                                                    
         AVE ANNUAL BASIN VALUES

              PRECIP =    435.4 MM
              SNOW FALL =  302.78 MM
              SNOW MELT =   261.30 MM
              SUBLIMATION =    28.28 MM
              SURFACE RUNOFF Q =   192.48 MM
              LATERAL SOIL Q =   21.88 MM
              TILE Q =     0.00 MM
              GROUNDWATER (SHAL AQ) Q =    51.42 MM
              GROUNDWATER (DEEP AQ) Q =     3.08 MM
              REVAP (SHAL AQ => SOIL/PLANTS) =   11.89 MM
              DEEP AQ RECHARGE =     3.34 MM
              TOTAL AQ RECHARGE =   66.80 MM
              TOTAL WATER YLD =   268.87 MM
              PERCOLATION OUT OF SOIL =   66.86 MM
              ET =    164.8 MM
              PET =    659.0MM
              TRANSMISSION LOSSES =     0.00 MM
              SEPTIC INFLOW =       0.00 MM
              TOTAL SEDIMENT LOADING =    411.71 T/HA
              TILE FROM IMPOUNDED WATER =     0.000 (MM)
              EVAPORATION FROM IMPOUNDED WATER =     0.000 (MM)
              SEEPAGE INTO SOIL FROM IMPOUNDED WATER =    0.000 (MM)
              OVERFLOW FROM IMPOUNDED WATER =    0.000 (MM)
1
    SWAT Sep 7    VER 2018/Rev 670                                                  

    General Input/Output section (file.cio):                                        
    5/13/2020 12:00:00 AM ARCGIS-SWAT interface AV                                  
                                                                                    
              AVE ANNUAL BASIN VALUES


              NUTRIENTS
                   ORGANIC N =    34.747 (KG/HA)
                   ORGANIC P =     4.297 (KG/HA)
                   NO3 YIELD (SQ) =     1.372 (KG/HA)
                   NO3 YIELD (LAT) =    0.305 (KG/HA)
                   NO3 YIELD (TILE) =    0.000 (KG/HA)
                   SOLP YIELD (TILE) =    0.000(KG/HA)
                   SOLP YIELD (SURF INLET RISER) =    0.000 (KG/HA)
                   SOL P YIELD =    0.030 (KG/HA)
                   NO3 LEACHED =     3.325 (KG/HA)
                   P LEACHED =     0.029 (KG/HA)
                   N UPTAKE =    18.628 (KG/HA)
                   P UPTAKE =    2.266 (KG/HA)
                   NO3 YIELD (GWQ) =     0.019 (KG/HA)
                   ACTIVE TO SOLUTION P FLOW =        -0.901 (KG/HA)
                   ACTIVE TO STABLE P FLOW =        -0.623 (KG/HA)
                   N FERTILIZER APPLIED =    15.332 (KG/HA)
                   P FERTILIZER APPLIED =     0.000 (KG/HA)
                   N FIXATION =     0.000 (KG/HA)
                   DENITRIFICATION =     1.352 (KG/HA)
                   HUMUS MIN ON ACTIVE ORG N =     1.554 (KG/HA)
                   ACTIVE TO STABLE ORG N =    -0.242 (KG/HA)
                   HUMUS MIN ON ACTIVE ORG P =    0.266 (KG/HA)
                   MIN FROM FRESH ORG N =    6.830 (KG/HA)
                   MIN FROM FRESH ORG P =    0.872 (KG/HA)
                   NO3 IN RAINFALL =     0.808 (KG/HA)
                   INITIAL NO3 IN SOIL =      42.764 (KG/HA)
                   FINAL NO3 IN SOIL =        14.955 (KG/HA)
                   INITIAL ORG N IN SOIL =   13093.731 (KG/HA)
                   FINAL ORG N IN SOIL =     12795.345 (KG/HA)
                   INITIAL MIN P IN SOIL =    2293.496 (KG/HA)
                   FINAL MIN P IN SOIL =      2246.764 (KG/HA)
                   INITIAL ORG P IN SOIL =    1603.982 (KG/HA)
                   FINAL ORG P IN SOIL =    1567.117 (KG/HA)
                   NO3 IN FERT =    15.332 (KG/HA)
                   AMMONIA IN FERT =     0.000 (KG/HA)
                   ORG N IN FERT =     0.000 (KG/HA)
                   MINERAL P IN FERT =     0.380 (KG/HA)
                   ORG P IN FERT =     0.000 (KG/HA)
                   N REMOVED IN YIELD =     4.931 (KG/HA)
                   P REMOVED IN YIELD =     0.434 (KG/HA)
                   AMMONIA VOLATILIZATION =     0.000 (KG/HA)
                   AMMONIA NITRIFICATION =      0.000 (KG/HA)
                   NO3 EVAP-LAYER 2 TO 1 =    1.968

                   DIE-GRO P Q =           0.0 (No/M2)
                   DIE-GRO LP Q =           0.0 (No/M2)
                   DIE-GRO P SED =          0.0 (No/M2)
                   DIE-GRO LP SED =          0.0 (No/M2)
                   BACT P RUNOFF =          0.0 (No/M2)
                   BACT LP RUNOFF =          0.0 (No/M2)
                   BACT P SEDIMENT =          0.0 (No/M2)
                   BACT LP SEDIMENT =          0.0 (No/M2)
                   BACT P INCORP =          0.0 (No/M2)
                   BACT LP INCORP =          0.0 (No/M2)

                   NITRATE SEPTIC =         0.00 (kg/ha)
                   AMMONIA SEPTIC =         0.00 (kg/ha)
                   ORG N SEPTIC =         0.00 (kg/ha)
                   FRESH ORGN SEPTIC =         0.00 (kg/ha)
                   ORG P SEPTIC =         0.00 (kg/ha)
                   FRESH ORGP SEPTIC =         0.00 (kg/ha)
                   SOL P SEPTIC =         0.00 (kg/ha)
                   BOD SEPTIC =         0.00 (kg/ha)
